Using: /usr/cadtool/cad/synopsys/hspice/2020.12-sp2/hspice/linux64/hspice hw3_b.sp
 ****** PrimeSim HSPICE -- R-2020.12-SP2 linux64 (May 24 2021 7074677) ******
  Copyright (c) 1986 - 2023 by Synopsys, Inc. All Rights Reserved.
  This software and the associated documentation are proprietary
  to Synopsys, Inc. This software may only be used in accordance
  with the terms and conditions of a written license agreement with
  Synopsys, Inc. All other use, reproduction, or distribution of
  this software is strictly prohibited.
  Input File: hw3_b.sp                                                          
  Command line options: /usr/cadtool/cad/synopsys/hspice/2020.12-sp2/hspice/linux64/hspice hw3_b.sp
  Start time: Tue Nov 14 10:32:04 2023
 lic:  
 lic: FLEXlm: SDK_12.9.5 
 lic: USER:   u110061217           HOSTNAME: ws24 
 lic: HOSTID: "507c6f09f6b9"       PID:      63902 
 lic: Using FLEXlm license file: 
 lic: 26585@lstn 
 lic: Checkout 1 hspice 
 lic: License/Maintenance for hspice will expire on 31-mar-2024/2023.03 
 lic: 233(in_use)/450(total) FLOATING license(s) on SERVER 26585@lstn 
 lic:   
 

  
      
 *****************************************************************
 ******  option summary
 ******
 runlvl  = 3         bypass  = 2.0000    




 ****     small-signal transfer characteristics

        vb2        input resistance at vin       output resistance at v(vout)     v(vout)/vin      

       0.                499.7336g                     100.0000k                  100.0000n
       1.0000m           499.7336g                     100.0000k                  100.0000n
       2.0000m           499.7336g                     100.0000k                  100.0000n
       3.0000m           499.7336g                     100.0000k                  100.0000n
       4.0000m           499.7336g                     100.0000k                  100.0000n
       5.0000m           499.7336g                     100.0000k                  100.0000n
       6.0000m           499.7336g                     100.0000k                  100.0000n
       7.0000m           499.7336g                     100.0000k                  100.0000n
       8.0000m           499.7336g                     100.0000k                  100.0000n
       9.0000m           499.7336g                     100.0000k                  100.0000n
      10.0000m           499.7336g                     100.0000k                  100.0000n
      11.0000m           499.7336g                     100.0000k                  100.0000n
      12.0000m           499.7336g                     100.0000k                  100.0000n
      13.0000m           499.7336g                     100.0000k                  100.0000n
      14.0000m           499.7336g                     100.0000k                  100.0000n
      15.0000m           499.7336g                     100.0000k                  100.0000n
      16.0000m           499.7336g                     100.0000k                  100.0000n
      17.0000m           499.7336g                     100.0000k                  100.0000n
      18.0000m           499.7336g                     100.0000k                  100.0000n
      19.0000m           499.7336g                     100.0000k                  100.0000n
      20.0000m           499.7336g                     100.0000k                  100.0000n
      21.0000m           499.7336g                     100.0000k                  100.0000n
      22.0000m           499.7336g                     100.0000k                  100.0000n
      23.0000m           499.7336g                     100.0000k                  100.0000n
      24.0000m           499.7336g                     100.0000k                  100.0000n
      25.0000m           499.7336g                     100.0000k                  100.0000n
      26.0000m           499.7336g                     100.0000k                  100.0000n
      27.0000m           499.7336g                     100.0000k                  100.0000n
      28.0000m           499.7336g                     100.0000k                  100.0000n
      29.0000m           499.7336g                     100.0000k                  100.0000n
      30.0000m           499.7336g                     100.0000k                  100.0000n
      31.0000m           499.7336g                     100.0000k                  100.0000n
      32.0000m           499.7336g                     100.0000k                  100.0000n
      33.0000m           499.7336g                     100.0000k                  100.0000n
      34.0000m           499.7336g                     100.0000k                  100.0000n
      35.0000m           499.7336g                     100.0000k                  100.0000n
      36.0000m           499.7336g                     100.0000k                  100.0000n
      37.0000m           499.7336g                     100.0000k                  100.0000n
      38.0000m           499.7336g                     100.0000k                  100.0000n
      39.0000m           499.7336g                     100.0000k                  100.0000n
      40.0000m           499.7336g                     100.0000k                  100.0000n
      41.0000m           499.7336g                     100.0000k                  100.0000n
      42.0000m           499.7336g                     100.0000k                  100.0000n
      43.0000m           499.7336g                     100.0000k                  100.0000n
      44.0000m           499.7336g                     100.0000k                  100.0001n
      45.0000m           499.7336g                     100.0000k                  100.0001n
      46.0000m           499.7336g                     100.0000k                  100.0001n
      47.0000m           499.7336g                     100.0000k                  100.0001n
      48.0000m           499.7336g                     100.0000k                  100.0001n
      49.0000m           499.7336g                     100.0000k                  100.0001n
      50.0000m           499.7336g                     100.0000k                  100.0001n
      51.0000m           499.7336g                     100.0000k                  100.0001n
      52.0000m           499.7336g                     100.0000k                  100.0001n
      53.0000m           499.7336g                     100.0000k                  100.0001n
      54.0000m           499.7336g                     100.0000k                  100.0001n
      55.0000m           499.7336g                     100.0000k                  100.0001n
      56.0000m           499.7336g                     100.0000k                  100.0001n
      57.0000m           499.7336g                     100.0000k                  100.0001n
      58.0000m           499.7336g                     100.0000k                  100.0001n
      59.0000m           499.7336g                     100.0000k                  100.0001n
      60.0000m           499.7336g                     100.0000k                  100.0001n
      61.0000m           499.7336g                     100.0000k                  100.0001n
      62.0000m           499.7336g                     100.0000k                  100.0001n
      63.0000m           499.7336g                     100.0000k                  100.0001n
      64.0000m           499.7336g                     100.0000k                  100.0001n
      65.0000m           499.7336g                     100.0000k                  100.0001n
      66.0000m           499.7336g                     100.0000k                  100.0001n
      67.0000m           499.7336g                     100.0000k                  100.0002n
      68.0000m           499.7336g                     100.0000k                  100.0002n
      69.0000m           499.7336g                     100.0000k                  100.0002n
      70.0000m           499.7336g                     100.0000k                  100.0002n
      71.0000m           499.7336g                     100.0000k                  100.0002n
      72.0000m           499.7336g                     100.0000k                  100.0002n
      73.0000m           499.7336g                     100.0000k                  100.0002n
      74.0000m           499.7336g                     100.0000k                  100.0002n
      75.0000m           499.7336g                     100.0000k                  100.0002n
      76.0000m           499.7336g                     100.0000k                  100.0002n
      77.0000m           499.7336g                     100.0000k                  100.0002n
      78.0000m           499.7336g                     100.0000k                  100.0002n
      79.0000m           499.7336g                     100.0000k                  100.0003n
      80.0000m           499.7336g                     100.0000k                  100.0003n
      81.0000m           499.7336g                     100.0000k                  100.0003n
      82.0000m           499.7336g                     100.0000k                  100.0003n
      83.0000m           499.7336g                     100.0000k                  100.0003n
      84.0000m           499.7336g                     100.0000k                  100.0003n
      85.0000m           499.7336g                     100.0000k                  100.0003n
      86.0000m           499.7336g                     100.0000k                  100.0003n
      87.0000m           499.7336g                     100.0000k                  100.0004n
      88.0000m           499.7336g                     100.0000k                  100.0004n
      89.0000m           499.7336g                     100.0000k                  100.0004n
      90.0000m           499.7336g                     100.0000k                  100.0004n
      91.0000m           499.7336g                     100.0000k                  100.0004n
      92.0000m           499.7336g                     100.0000k                  100.0004n
      93.0000m           499.7336g                     100.0000k                  100.0005n
      94.0000m           499.7336g                     100.0000k                  100.0005n
      95.0000m           499.7336g                     100.0000k                  100.0005n
      96.0000m           499.7336g                     100.0000k                  100.0005n
      97.0000m           499.7336g                     100.0000k                  100.0005n
      98.0000m           499.7336g                     100.0000k                  100.0006n
      99.0000m           499.7336g                     100.0000k                  100.0006n
     100.0000m           499.7336g                     100.0000k                  100.0006n
     101.0000m           499.7336g                     100.0000k                  100.0006n
     102.0000m           499.7336g                     100.0000k                  100.0007n
     103.0000m           499.7336g                     100.0000k                  100.0007n
     104.0000m           499.7336g                     100.0000k                  100.0007n
     105.0000m           499.7336g                     100.0000k                  100.0007n
     106.0000m           499.7336g                     100.0000k                  100.0008n
     107.0000m           499.7336g                     100.0000k                  100.0008n
     108.0000m           499.7336g                     100.0000k                  100.0008n
     109.0000m           499.7336g                     100.0000k                  100.0009n
     110.0000m           499.7336g                     100.0000k                  100.0009n
     111.0000m           499.7336g                     100.0000k                  100.0009n
     112.0000m           499.7336g                     100.0000k                  100.0010n
     113.0000m           499.7336g                     100.0000k                  100.0010n
     114.0000m           499.7336g                     100.0000k                  100.0011n
     115.0000m           499.7336g                     100.0000k                  100.0011n
     116.0000m           499.7336g                     100.0000k                  100.0011n
     117.0000m           499.7336g                     100.0000k                  100.0012n
     118.0000m           499.7336g                     100.0000k                  100.0012n
     119.0000m           499.7336g                     100.0000k                  100.0013n
     120.0000m           499.7336g                     100.0000k                  100.0013n
     121.0000m           499.7336g                     100.0000k                  100.0014n
     122.0000m           499.7336g                     100.0000k                  100.0014n
     123.0000m           499.7336g                     100.0000k                  100.0015n
     124.0000m           499.7336g                     100.0000k                  100.0016n
     125.0000m           499.7336g                     100.0000k                  100.0016n
     126.0000m           499.7336g                     100.0000k                  100.0017n
     127.0000m           499.7336g                     100.0000k                  100.0018n
     128.0000m           499.7336g                     100.0000k                  100.0018n
     129.0000m           499.7336g                     100.0000k                  100.0019n
     130.0000m           499.7336g                     100.0000k                  100.0020n
     131.0000m           499.7336g                     100.0000k                  100.0021n
     132.0000m           499.7336g                     100.0000k                  100.0021n
     133.0000m           499.7336g                     100.0000k                  100.0022n
     134.0000m           499.7336g                     100.0000k                  100.0023n
     135.0000m           499.7336g                     100.0000k                  100.0024n
     136.0000m           499.7336g                     100.0000k                  100.0025n
     137.0000m           499.7336g                     100.0000k                  100.0026n
     138.0000m           499.7336g                     100.0000k                  100.0027n
     139.0000m           499.7336g                     100.0000k                  100.0028n
     140.0000m           499.7336g                     100.0000k                  100.0029n
     141.0000m           499.7336g                     100.0000k                  100.0030n
     142.0000m           499.7336g                     100.0000k                  100.0031n
     143.0000m           499.7336g                     100.0000k                  100.0033n
     144.0000m           499.7336g                     100.0000k                  100.0034n
     145.0000m           499.7336g                     100.0000k                  100.0035n
     146.0000m           499.7336g                     100.0000k                  100.0037n
     147.0000m           499.7336g                     100.0000k                  100.0038n
     148.0000m           499.7336g                     100.0000k                  100.0040n
     149.0000m           499.7336g                     100.0000k                  100.0041n
     150.0000m           499.7336g                     100.0000k                  100.0043n
     151.0000m           499.7336g                     100.0000k                  100.0045n
     152.0000m           499.7336g                     100.0000k                  100.0046n
     153.0000m           499.7336g                     100.0000k                  100.0048n
     154.0000m           499.7336g                     100.0000k                  100.0050n
     155.0000m           499.7336g                     100.0000k                  100.0052n
     156.0000m           499.7336g                     100.0000k                  100.0054n
     157.0000m           499.7336g                     100.0000k                  100.0056n
     158.0000m           499.7336g                     100.0000k                  100.0058n
     159.0000m           499.7336g                     100.0000k                  100.0061n
     160.0000m           499.7336g                     100.0000k                  100.0063n
     161.0000m           499.7336g                     100.0000k                  100.0066n
     162.0000m           499.7336g                     100.0000k                  100.0068n
     163.0000m           499.7336g                     100.0000k                  100.0071n
     164.0000m           499.7336g                     100.0000k                  100.0074n
     165.0000m           499.7336g                     100.0000k                  100.0077n
     166.0000m           499.7336g                     100.0000k                  100.0080n
     167.0000m           499.7336g                     100.0000k                  100.0083n
     168.0000m           499.7336g                     100.0000k                  100.0086n
     169.0000m           499.7336g                     100.0000k                  100.0089n
     170.0000m           499.7336g                     100.0000k                  100.0093n
     171.0000m           499.7336g                     100.0000k                  100.0097n
     172.0000m           499.7336g                     100.0000k                  100.0100n
     173.0000m           499.7336g                     100.0000k                  100.0104n
     174.0000m           499.7336g                     100.0000k                  100.0108n
     175.0000m           499.7336g                     100.0000k                  100.0113n
     176.0000m           499.7336g                     100.0000k                  100.0117n
     177.0000m           499.7336g                     100.0000k                  100.0122n
     178.0000m           499.7336g                     100.0000k                  100.0127n
     179.0000m           499.7336g                     100.0000k                  100.0132n
     180.0000m           499.7336g                     100.0000k                  100.0137n
     181.0000m           499.7336g                     100.0000k                  100.0142n
     182.0000m           499.7336g                     100.0000k                  100.0148n
     183.0000m           499.7336g                     100.0000k                  100.0154n
     184.0000m           499.7336g                     100.0000k                  100.0160n
     185.0000m           499.7336g                     100.0000k                  100.0166n
     186.0000m           499.7336g                     100.0000k                  100.0172n
     187.0000m           499.7336g                     100.0000k                  100.0179n
     188.0000m           499.7336g                     100.0000k                  100.0186n
     189.0000m           499.7336g                     100.0000k                  100.0193n
     190.0000m           499.7336g                     100.0000k                  100.0201n
     191.0000m           499.7336g                     100.0000k                  100.0209n
     192.0000m           499.7336g                     100.0000k                  100.0217n
     193.0000m           499.7336g                     100.0000k                  100.0226n
     194.0000m           499.7336g                     100.0000k                  100.0235n
     195.0000m           499.7336g                     100.0000k                  100.0244n
     196.0000m           499.7336g                     100.0000k                  100.0253n
     197.0000m           499.7336g                     100.0000k                  100.0263n
     198.0000m           499.7336g                     100.0000k                  100.0274n
     199.0000m           499.7336g                     100.0000k                  100.0284n
     200.0000m           499.7336g                     100.0000k                  100.0296n
     201.0000m           499.7336g                     100.0000k                  100.0307n
     202.0000m           499.7336g                     100.0000k                  100.0319n
     203.0000m           499.7336g                     100.0000k                  100.0332n
     204.0000m           499.7336g                     100.0000k                  100.0345n
     205.0000m           499.7336g                     100.0000k                  100.0359n
     206.0000m           499.7336g                     100.0000k                  100.0373n
     207.0000m           499.5119g                     100.0000k                  100.0387n
     208.0000m           499.5119g                     100.0000k                  100.0402n
     209.0000m           499.5119g                     100.0000k                  100.0418n
     210.0000m           499.5119g                     100.0000k                  100.0435n
     211.0000m           499.5119g                     100.0000k                  100.0452n
     212.0000m           499.5119g                     100.0000k                  100.0470n
     213.0000m           499.5119g                     100.0000k                  100.0488n
     214.0000m           499.5119g                     100.0000k                  100.0507n
     215.0000m           499.5119g                     100.0000k                  100.0527n
     216.0000m           499.5119g                     100.0000k                  100.0548n
     217.0000m           499.5119g                     100.0000k                  100.0569n
     218.0000m           499.5119g                     100.0000k                  100.0592n
     219.0000m           499.5119g                     100.0000k                  100.0615n
     220.0000m           499.5119g                     100.0000k                  100.0639n
     221.0000m           499.5119g                     100.0000k                  100.0664n
     222.0000m           499.5119g                     100.0000k                  100.0690n
     223.0000m           499.5119g                     100.0000k                  100.0717n
     224.0000m           499.5119g                     100.0000k                  100.0746n
     225.0000m           499.5119g                     100.0000k                  100.0775n
     226.0000m           499.5119g                     100.0000k                  100.0805n
     227.0000m           499.5119g                     100.0000k                  100.0837n
     228.0000m           499.5119g                     100.0000k                  100.0870n
     229.0000m           499.5119g                     100.0000k                  100.0904n
     230.0000m           499.5119g                     100.0000k                  100.0939n
     231.0000m           499.5119g                     100.0000k                  100.0976n
     232.0000m           499.5119g                     100.0000k                  100.1015n
     233.0000m           499.5119g                     100.0000k                  100.1055n
     234.0000m           499.5119g                     100.0000k                  100.1096n
     235.0000m           499.5119g                     100.0000k                  100.1139n
     236.0000m           499.5119g                     100.0000k                  100.1184n
     237.0000m           499.5119g                     100.0000k                  100.1230n
     238.0000m           499.2904g                     100.0000k                  100.1279n
     239.0000m           499.2904g                     100.0000k                  100.1329n
     240.0000m           499.2904g                     100.0000k                  100.1381n
     241.0000m           499.2904g                     100.0000k                  100.1435n
     242.0000m           499.2904g                     100.0000k                  100.1492n
     243.0000m           499.2904g                     100.0000k                  100.1550n
     244.0000m           499.2904g                     100.0000k                  100.1611n
     245.0000m           499.2904g                     100.0000k                  100.1674n
     246.0000m           499.2904g                     100.0000k                  100.1740n
     247.0000m           499.2904g                     100.0000k                  100.1808n
     248.0000m           499.2904g                     100.0000k                  100.1879n
     249.0000m           499.2904g                     100.0000k                  100.1953n
     250.0000m           499.2904g                     100.0000k                  100.2030n
     251.0000m           499.2904g                     100.0000k                  100.2110n
     252.0000m           499.0691g                     100.0000k                  100.2193n
     253.0000m           499.0691g                     100.0000k                  100.2279n
     254.0000m           499.0691g                     100.0000k                  100.2368n
     255.0000m           499.0691g                     100.0000k                  100.2461n
     256.0000m           499.0691g                     100.0000k                  100.2558n
     257.0000m           499.0691g                     100.0000k                  100.2658n
     258.0000m           499.0691g                     100.0000k                  100.2763n
     259.0000m           499.0691g                     100.0000k                  100.2871n
     260.0000m           499.0691g                     100.0000k                  100.2984n
     261.0000m           498.8480g                     100.0000k                  100.3101n
     262.0000m           498.8480g                     100.0000k                  100.3223n
     263.0000m           498.8480g                     100.0000k                  100.3350n
     264.0000m           498.8480g                     100.0000k                  100.3481n
     265.0000m           498.8480g                     100.0000k                  100.3618n
     266.0000m           498.8480g                     100.0000k                  100.3760n
     267.0000m           498.8480g                     100.0000k                  100.3908n
     268.0000m           498.6271g                     100.0000k                  100.4061n
     269.0000m           498.6271g                     100.0000k                  100.4221n
     270.0000m           498.6271g                     100.0000k                  100.4386n
     271.0000m           498.6271g                     100.0000k                  100.4559n
     272.0000m           498.6271g                     100.0000k                  100.4738n
     273.0000m           498.4063g                     100.0000k                  100.4924n
     274.0000m           498.4063g                     100.0000k                  100.5117n
     275.0000m           498.4063g                     100.0000k                  100.5318n
     276.0000m           498.4063g                     100.0000k                  100.5527n
     277.0000m           498.1858g                     100.0000k                  100.5744n
     278.0000m           498.1858g                     100.0000k                  100.5969n
     279.0000m           498.1858g                     100.0000k                  100.6204n
     280.0000m           498.1858g                     100.0000k                  100.6447n
     281.0000m           497.9655g                     100.0000k                  100.6701n
     282.0000m           497.9655g                     100.0000k                  100.6964n
     283.0000m           497.9655g                     100.0000k                  100.7237n
     284.0000m           497.7453g                     100.0000k                  100.7522n
     285.0000m           497.7453g                     100.0000k                  100.7817n
     286.0000m           497.7453g                     100.0000k                  100.8124n
     287.0000m           497.5254g                     100.0000k                  100.8443n
     288.0000m           497.5254g                     100.0000k                  100.8775n
     289.0000m           497.5254g                     100.0000k                  100.9119n
     290.0000m           497.3056g                     100.0000k                  100.9477n
     291.0000m           497.3056g                     100.0000k                  100.9849n
     292.0000m           497.0861g                     100.0000k                  101.0236n
     293.0000m           497.0861g                     100.0000k                  101.0638n
     294.0000m           496.8667g                     100.0000k                  101.1056n
     295.0000m           496.8667g                     100.0000k                  101.1490n
     296.0000m           496.6475g                     100.0000k                  101.1941n
     297.0000m           496.6475g                     100.0000k                  101.2410n
     298.0000m           496.4285g                     100.0000k                  101.2898n
     299.0000m           496.4285g                     100.0000k                  101.3404n
     300.0000m           496.2097g                     100.0000k                  101.3931n
     301.0000m           496.2097g                     100.0000k                  101.4478n
     302.0000m           495.9911g                     100.0000k                  101.5046n
     303.0000m           495.7727g                     100.0000k                  101.5637n
     304.0000m           495.7727g                     100.0000k                  101.6251n
     305.0000m           495.5545g                     100.0000k                  101.6889n
     306.0000m           495.3365g                     100.0000k                  101.7553n
     307.0000m           495.1187g                     100.0000k                  101.8242n
     308.0000m           495.1187g                     100.0000k                  101.8958n
     309.0000m           494.9011g                     100.0000k                  101.9703n
     310.0000m           494.6836g                     100.0000k                  102.0477n
     311.0000m           494.4664g                     100.0000k                  102.1281n
     312.0000m           494.2493g                     100.0000k                  102.2117n
     313.0000m           494.0324g                     100.0000k                  102.2985n
     314.0000m           493.8157g                     100.0000k                  102.3888n
     315.0000m           493.5993g                     100.0000k                  102.4826n
     316.0000m           493.3830g                     100.0000k                  102.5801n
     317.0000m           493.1668g                     100.0000k                  102.6814n
     318.0000m           492.9509g                     100.0000k                  102.7867n
     319.0000m           492.5196g                     100.0000k                  102.8961n
     320.0000m           492.3043g                     100.0000k                  103.0099n
     321.0000m           492.0891g                     100.0000k                  103.1281n
     322.0000m           491.6593g                     100.0000k                  103.2509n
     323.0000m           491.4447g                     100.0000k                  103.3786n
     324.0000m           491.0161g                     100.0000k                  103.5112n
     325.0000m           490.8021g                     100.0000k                  103.6491n
     326.0000m           490.3745g                     100.0000k                  103.7924n
     327.0000m           490.1610g                     100.0000k                  103.9414n
     328.0000m           489.7346g                     100.0000k                  104.0961n
     329.0000m           489.3090g                     100.0000k                  104.2570n
     330.0000m           488.8840g                     100.0000k                  104.4242n
     331.0000m           488.4598g                     100.0000k                  104.5979n
     332.0000m           488.0364g                     100.0000k                  104.7785n
     333.0000m           487.6136g                     100.0000k                  104.9661n
     334.0000m           487.1917g                     100.0000k                  105.1611n
     335.0000m           486.7704g                     100.0000k                  105.3638n
     336.0000m           486.1399g                     100.0000k                  105.5745n
     337.0000m           485.7204g                     100.0000k                  105.7934n
     338.0000m           485.0926g                     100.0000k                  106.0209n
     339.0000m           484.4664g                     100.0000k                  106.2573n
     340.0000m           484.0498g                     100.0000k                  106.5030n
     341.0000m           483.4263g                     100.0000k                  106.7584n
     342.0000m           482.8044g                     100.0000k                  107.0238n
     343.0000m           482.1841g                     100.0000k                  107.2996n
     344.0000m           481.5654g                     100.0000k                  107.5863n
     345.0000m           480.7429g                     100.0000k                  107.8842n
     346.0000m           480.1279g                     100.0000k                  108.1938n
     347.0000m           479.3103g                     100.0000k                  108.5156n
     348.0000m           478.4955g                     100.0000k                  108.8500n
     349.0000m           477.6835g                     100.0000k                  109.1975n
     350.0000m           476.8742g                     100.0000k                  109.5587n
     351.0000m           476.0676g                     100.0000k                  109.9341n
     352.0000m           475.2638g                     100.0000k                  110.3242n
     353.0000m           474.2628g                     100.0000k                  110.7296n
     354.0000m           473.2660g                     100.0000k                  111.1509n
     355.0000m           472.2735g                     100.0000k                  111.5888n
     356.0000m           471.2850g                     100.0000k                  112.0439n
     357.0000m           470.3007g                     100.0000k                  112.5169n
     358.0000m           469.1250g                     100.0000k                  113.0084n
     359.0000m           468.1496g                     100.0000k                  113.5192n
     360.0000m           466.9846g                     100.0000k                  114.0501n
     361.0000m           465.8254g                     100.0000k                  114.6019n
     362.0000m           464.4802g                     100.0000k                  115.1753n
     363.0000m           463.1427g                     100.0000k                  115.7712n
     364.0000m           461.8129g                     100.0000k                  116.3905n
     365.0000m           460.4908g                     100.0000k                  117.0341n
     366.0000m           459.1761g                     100.0000k                  117.7030n
     367.0000m           457.6829g                     100.0000k                  118.3982n
     368.0000m           456.1993g                     100.0000k                  119.1207n
     369.0000m           454.5417g                     100.0000k                  119.8715n
     370.0000m           452.8962g                     100.0000k                  120.6519n
     371.0000m           451.2625g                     100.0000k                  121.4628n
     372.0000m           449.6405g                     100.0000k                  122.3056n
     373.0000m           447.8520g                     100.0000k                  123.1815n
     374.0000m           446.0776g                     100.0000k                  124.0918n
     375.0000m           444.1420g                     100.0000k                  125.0379n
     376.0000m           442.2231g                     100.0000k                  126.0211n
     377.0000m           440.1485g                     100.0000k                  127.0429n
     378.0000m           438.0933g                     100.0000k                  128.1048n
     379.0000m           436.0573g                     100.0000k                  129.2084n
     380.0000m           433.8728g                     100.0000k                  130.3554n
     381.0000m           431.7101g                     100.0000k                  131.5474n
     382.0000m           429.4050g                     100.0000k                  132.7862n
     383.0000m           426.9624g                     100.0000k                  134.0736n
     384.0000m           424.5475g                     100.0000k                  135.4116n
     385.0000m           422.1597g                     100.0000k                  136.8021n
     386.0000m           419.4858g                     100.0000k                  138.2473n
     387.0000m           416.8456g                     100.0000k                  139.7491n
     388.0000m           414.2384g                     100.0000k                  141.3100n
     389.0000m           411.5131g                     100.0000k                  142.9321n
     390.0000m           408.6751g                     100.0000k                  144.6179n
     391.0000m           405.7297g                     100.0000k                  146.3699n
     392.0000m           402.6824g                     100.0000k                  148.1908n
     393.0000m           399.6805g                     100.0000k                  150.0831n
     394.0000m           396.5833g                     100.0000k                  152.0497n
     395.0000m           393.3962g                     100.0000k                  154.0935n
     396.0000m           390.1247g                     100.0000k                  156.2176n
     397.0000m           386.7743g                     100.0000k                  158.4250n
     398.0000m           383.3503g                     100.0000k                  160.7192n
     399.0000m           379.8583g                     100.0000k                  163.1034n
     400.0000m           376.4293g                     100.0000k                  165.5813n
     401.0000m           372.8145g                     100.0000k                  168.1564n
     402.0000m           369.0265g                     100.0000k                  170.8326n
     403.0000m           365.3147g                     100.0000k                  173.6139n
     404.0000m           361.5607g                     100.0000k                  176.5045n
     405.0000m           357.6556g                     100.0000k                  179.5085n
     406.0000m           353.7229g                     100.0000k                  182.6304n
     407.0000m           349.6584g                     100.0000k                  185.8750n
     408.0000m           345.5801g                     100.0000k                  189.2469n
     409.0000m           341.4922g                     100.0000k                  192.7512n
     410.0000m           337.2978g                     100.0000k                  196.3931n
     411.0000m           333.0080g                     100.0000k                  200.1780n
     412.0000m           328.7299g                     100.0000k                  204.1115n
     413.0000m           324.3734g                     100.0000k                  208.1995n
     414.0000m           319.9488g                     100.0000k                  212.4479n
     415.0000m           315.4665g                     100.0000k                  216.8631n
     416.0000m           311.0221g                     100.0000k                  221.4517n
     417.0000m           306.4507g                     100.0000k                  226.2204n
     418.0000m           301.8498g                     100.0000k                  231.1764n
     419.0000m           297.2281g                     100.0000k                  236.3269n
     420.0000m           292.5935g                     100.0000k                  241.6797n
     421.0000m           287.8803g                     100.0000k                  247.2426n
     422.0000m           283.1740g                     100.0000k                  253.0239n
     423.0000m           278.4124g                     100.0000k                  259.0322n
     424.0000m           273.6752g                     100.0000k                  265.2763n
     425.0000m           268.9037g                     100.0000k                  271.7656n
     426.0000m           264.1098g                     100.0000k                  278.5097n
     427.0000m           259.3044g                     100.0000k                  285.5185n
     428.0000m           254.4982g                     100.0000k                  292.8025n
     429.0000m           249.7006g                     100.0000k                  300.3725n
     430.0000m           244.8673g                     100.0000k                  308.2396n
     431.0000m           240.0639g                     100.0000k                  316.4156n
     432.0000m           235.2978g                     100.0000k                  324.9126n
     433.0000m           230.4810g                     100.0000k                  333.7431n
     434.0000m           225.7217g                     100.0000k                  342.9203n
     435.0000m           220.9813g                     100.0000k                  352.4577n
     436.0000m           216.2281g                     100.0000k                  362.3696n
     437.0000m           211.5160g                     100.0000k                  372.6706n
     438.0000m           206.8148g                     100.0000k                  383.3759n
     439.0000m           202.1727g                     100.0000k                  394.5015n
     440.0000m           197.5610g                     100.0000k                  406.0639n
     441.0000m           192.9894g                     100.0000k                  418.0801n
     442.0000m           188.4351g                     100.0000k                  430.5681n
     443.0000m           183.9405g                     100.0000k                  443.5462n
     444.0000m           179.4835g                     100.0000k                  457.0338n
     445.0000m           175.0738g                     100.0000k                  471.0508n
     446.0000m           170.7202g                     100.0000k                  485.6181n
     447.0000m           166.4301g                     100.0000k                  500.7572n
     448.0000m           162.1867g                     100.0000k                  516.4905n
     449.0000m           157.9989g                     100.0000k                  532.8414n
     450.0000m           153.8535g                     100.0000k                  549.8341n
     451.0000m           149.7805g                     100.0000k                  567.4939n
     452.0000m           145.7853g                     100.0000k                  585.8468n
     453.0000m           141.8367g                     100.0000k                  604.9200n
     454.0000m           137.9610g                     100.0000k                  624.7420n
     455.0000m           134.1475g                     100.0000k                  645.3419n
     456.0000m           130.4030g                     100.0000k                  666.7504n
     457.0000m           126.7192g                     100.0000k                  688.9992n
     458.0000m           123.1164g                     100.0000k                  712.1212n
     459.0000m           119.5858g                     100.0000k                  736.1507n
     460.0000m           116.1081g                     100.0000k                  761.1234n
     461.0000m           112.7140g                     100.0000k                  787.0762n
     462.0000m           109.3850g                     100.0000k                  814.0476n
     463.0000m           106.1369g                     100.0000k                  842.0775n
     464.0000m           102.9535g                     100.0000k                  871.2076n
     465.0000m            99.8404g                     100.0000k                  901.4808n
     466.0000m            96.8016g                     100.0000k                  932.9422n
     467.0000m            93.8328g                     100.0000k                  965.6383n
     468.0000m            90.9304g                     100.0000k                  999.6175n
     469.0000m            88.1055g                     100.0000k                    1.0349u
     470.0000m            85.3407g                     100.0000k                    1.0716u
     471.0000m            82.6531g                     100.0000k                    1.1098u
     472.0000m            80.0327g                     100.0000k                    1.1494u
     473.0000m            77.4773g                     100.0000k                    1.1906u
     474.0000m            74.9900g                     100.0000k                    1.2334u
     475.0000m            72.5685g                     100.0000k                    1.2779u
     476.0000m            70.2151g                     100.0000k                    1.3241u
     477.0000m            67.9235g                     100.0000k                    1.3722u
     478.0000m            65.6923g                     100.0000k                    1.4221u
     479.0000m            63.5276g                     100.0000k                    1.4740u
     480.0000m            61.4239g                     100.0000k                    1.5279u
     481.0000m            59.3798g                     100.0000k                    1.5840u
     482.0000m            57.3941g                     100.0000k                    1.6422u
     483.0000m            55.4685g                     100.0000k                    1.7027u
     484.0000m            53.5990g                     100.0000k                    1.7656u
     485.0000m            51.7846g                     100.0000k                    1.8310u
     486.0000m            50.0244g                     100.0000k                    1.8989u
     487.0000m            48.3177g                     100.0000k                    1.9695u
     488.0000m            46.6636g                     100.0000k                    2.0429u
     489.0000m            45.0594g                     100.0000k                    2.1192u
     490.0000m            43.5063g                     100.0000k                    2.1984u
     491.0000m            42.0018g                     100.0000k                    2.2807u
     492.0000m            40.5437g                     100.0000k                    2.3663u
     493.0000m            39.1332g                     100.0000k                    2.4553u
     494.0000m            37.7667g                     100.0000k                    2.5477u
     495.0000m            36.4451g                     100.0000k                    2.6437u
     496.0000m            35.1657g                     100.0000k                    2.7436u
     497.0000m            33.9280g                     100.0000k                    2.8473u
     498.0000m            32.7306g                     100.0000k                    2.9551u
     499.0000m            31.5732g                     100.0000k                    3.0671u
     500.0000m            30.4536g                     100.0000k                    3.1836u
     501.0000m            29.3716g                     100.0000k                    3.3045u
     502.0000m            28.3252g                     100.0000k                    3.4303u
     503.0000m            27.3144g                     100.0000k                    3.5609u
     504.0000m            26.3375g                     100.0000k                    3.6967u
     505.0000m            25.3936g                     100.0000k                    3.8379u
     506.0000m            24.4819g                     100.0000k                    3.9845u
     507.0000m            23.6013g                     100.0000k                    4.1369u
     508.0000m            22.7510g                     100.0000k                    4.2953u
     509.0000m            21.9298g                     100.0000k                    4.4599u
     510.0000m            21.1369g                     100.0000k                    4.6309u
     511.0000m            20.3716g                     100.0000k                    4.8087u
     512.0000m            19.6328g                     100.0000k                    4.9934u
     513.0000m            18.9198g                     100.0000k                    5.1854u
     514.0000m            18.2317g                     100.0000k                    5.3849u
     515.0000m            17.5675g                     100.0000k                    5.5922u
     516.0000m            16.9270g                     100.0000k                    5.8076u
     517.0000m            16.3089g                     100.0000k                    6.0315u
     518.0000m            15.7128g                     100.0000k                    6.2642u
     519.0000m            15.1375g                     100.0000k                    6.5060u
     520.0000m            14.5829g                     100.0000k                    6.7572u
     521.0000m            14.0479g                     100.0000k                    7.0183u
     522.0000m            13.5321g                     100.0000k                    7.2897u
     523.0000m            13.0349g                     100.0000k                    7.5717u
     524.0000m            12.5552g                     100.0000k                    7.8647u
     525.0000m            12.0929g                     100.0000k                    8.1692u
     526.0000m            11.6472g                     100.0000k                    8.4857u
     527.0000m            11.2175g                     100.0000k                    8.8145u
     528.0000m            10.8033g                     100.0000k                    9.1563u
     529.0000m            10.4042g                     100.0000k                    9.5114u
     530.0000m            10.0195g                     100.0000k                    9.8804u
     531.0000m             9.6487g                     100.0000k                   10.2640u
     532.0000m             9.2914g                     100.0000k                   10.6625u
     533.0000m             8.9471g                     100.0000k                   11.0766u
     534.0000m             8.6154g                     100.0000k                   11.5070u
     535.0000m             8.2958g                     100.0000k                   11.9543u
     536.0000m             7.9878g                     100.0000k                   12.4190u
     537.0000m             7.6910g                     100.0000k                   12.9020u
     538.0000m             7.4052g                     100.0000k                   13.4039u
     539.0000m             7.1299g                     100.0000k                   13.9254u
     540.0000m             6.8646g                     100.0000k                   14.4674u
     541.0000m             6.6091g                     100.0000k                   15.0306u
     542.0000m             6.3630g                     100.0000k                   15.6158u
     543.0000m             6.1259g                     100.0000k                   16.2240u
     544.0000m             5.8976g                     100.0000k                   16.8560u
     545.0000m             5.6777g                     100.0000k                   17.5127u
     546.0000m             5.4659g                     100.0000k                   18.1952u
     547.0000m             5.2619g                     100.0000k                   18.9043u
     548.0000m             5.0655g                     100.0000k                   19.6413u
     549.0000m             4.8763g                     100.0000k                   20.4071u
     550.0000m             4.6942g                     100.0000k                   21.2028u
     551.0000m             4.5188g                     100.0000k                   22.0297u
     552.0000m             4.3499g                     100.0000k                   22.8890u
     553.0000m             4.1873g                     100.0000k                   23.7819u
     554.0000m             4.0307g                     100.0000k                   24.7097u
     555.0000m             3.8799g                     100.0000k                   25.6739u
     556.0000m             3.7347g                     100.0000k                   26.6758u
     557.0000m             3.5949g                     100.0000k                   27.7168u
     558.0000m             3.4604g                     100.0000k                   28.7986u
     559.0000m             3.3308g                     100.0000k                   29.9228u
     560.0000m             3.2060g                     100.0000k                   31.0909u
     561.0000m             3.0860g                      99.9999k                   32.3047u
     562.0000m             2.9704g                      99.9999k                   33.5660u
     563.0000m             2.8590g                      99.9999k                   34.8766u
     564.0000m             2.7519g                      99.9999k                   36.2384u
     565.0000m             2.6488g                      99.9999k                   37.6535u
     566.0000m             2.5495g                      99.9999k                   39.1240u
     567.0000m             2.4539g                      99.9999k                   40.6519u
     568.0000m             2.3618g                      99.9999k                   42.2396u
     569.0000m             2.2733g                      99.9999k                   43.8893u
     570.0000m             2.1880g                      99.9999k                   45.6035u
     571.0000m             2.1059g                      99.9999k                   47.3847u
     572.0000m             2.0269g                      99.9999k                   49.2355u
     573.0000m             1.9509g                      99.9999k                   51.1586u
     574.0000m             1.8777g                      99.9999k                   53.1569u
     575.0000m             1.8072g                      99.9999k                   55.2332u
     576.0000m             1.7394g                      99.9999k                   57.3907u
     577.0000m             1.6741g                      99.9999k                   59.6324u
     578.0000m             1.6113g                      99.9999k                   61.9617u
     579.0000m             1.5508g                      99.9999k                   64.3819u
     580.0000m             1.4926g                      99.9999k                   66.8966u
     581.0000m             1.4366g                      99.9999k                   69.5096u
     582.0000m             1.3827g                      99.9999k                   72.2245u
     583.0000m             1.3308g                      99.9999k                   75.0454u
     584.0000m             1.2808g                      99.9999k                   77.9764u
     585.0000m             1.2327g                      99.9999k                   81.0218u
     586.0000m             1.1864g                      99.9999k                   84.1860u
     587.0000m             1.1419g                      99.9999k                   87.4737u
     588.0000m             1.0990g                      99.9999k                   90.8896u
     589.0000m             1.0578g                      99.9999k                   94.4388u
     590.0000m             1.0181g                      99.9999k                   98.1264u
     591.0000m           979.8358x                      99.9999k                  101.9578u
     592.0000m           943.0516x                      99.9999k                  105.9386u
     593.0000m           907.6493x                      99.9999k                  110.0745u
     594.0000m           873.5775x                      99.9999k                  114.3717u
     595.0000m           840.7848x                      99.9999k                  118.8364u
     596.0000m           809.2245x                      99.9999k                  123.4750u
     597.0000m           778.8493x                      99.9999k                  128.2944u
     598.0000m           749.6159x                      99.9999k                  133.3015u
     599.0000m           721.4810x                      99.9998k                  138.5037u
     600.0000m           694.4033x                      99.9998k                  143.9084u
     601.0000m           668.3434x                      99.9998k                  149.5236u
     602.0000m           643.2626x                      99.9998k                  155.3574u
     603.0000m           619.1247x                      99.9998k                  161.4183u
     604.0000m           595.8936x                      99.9998k                  167.7150u
     605.0000m           573.5360x                      99.9998k                  174.2568u
     606.0000m           552.0191x                      99.9998k                  181.0530u
     607.0000m           531.3107x                      99.9998k                  188.1137u
     608.0000m           511.3805x                      99.9998k                  195.4489u
     609.0000m           492.2001x                      99.9998k                  203.0693u
     610.0000m           473.7402x                      99.9998k                  210.9860u
     611.0000m           455.9745x                      99.9998k                  219.2104u
     612.0000m           438.8767x                      99.9998k                  227.7543u
     613.0000m           422.4214x                      99.9998k                  236.6303u
     614.0000m           406.5849x                      99.9997k                  245.8510u
     615.0000m           391.3435x                      99.9997k                  255.4298u
     616.0000m           376.6753x                      99.9997k                  265.3805u
     617.0000m           362.5585x                      99.9997k                  275.7175u
     618.0000m           348.9721x                      99.9997k                  286.4557u
     619.0000m           335.8965x                      99.9997k                  297.6106u
     620.0000m           323.3125x                      99.9997k                  309.1981u
     621.0000m           311.2015x                      99.9997k                  321.2351u
     622.0000m           299.5457x                      99.9997k                  333.7388u
     623.0000m           288.3279x                      99.9996k                  346.7272u
     624.0000m           277.5317x                      99.9996k                  360.2190u
     625.0000m           267.1414x                      99.9996k                  374.2335u
     626.0000m           257.1414x                      99.9996k                  388.7909u
     627.0000m           247.5173x                      99.9996k                  403.9120u
     628.0000m           238.2548x                      99.9996k                  419.6185u
     629.0000m           229.3404x                      99.9996k                  435.9329u
     630.0000m           220.7609x                      99.9995k                  452.8786u
     631.0000m           212.5038x                      99.9995k                  470.4798u
     632.0000m           204.5568x                      99.9995k                  488.7616u
     633.0000m           196.9084x                      99.9995k                  507.7501u
     634.0000m           189.5473x                      99.9995k                  527.4725u
     635.0000m           182.4627x                      99.9994k                  547.9570u
     636.0000m           175.6442x                      99.9994k                  569.2326u
     637.0000m           169.0818x                      99.9994k                  591.3296u
     638.0000m           162.7658x                      99.9994k                  614.2796u
     639.0000m           156.6869x                      99.9994k                  638.1152u
     640.0000m           150.8363x                      99.9993k                  662.8701u
     641.0000m           145.2054x                      99.9993k                  688.5796u
     642.0000m           139.7858x                      99.9993k                  715.2801u
     643.0000m           134.5696x                      99.9993k                  743.0094u
     644.0000m           129.5493x                      99.9992k                  771.8068u
     645.0000m           124.7173x                      99.9992k                  801.7130u
     646.0000m           120.0667x                      99.9992k                  832.7703u
     647.0000m           115.5905x                      99.9991k                  865.0225u
     648.0000m           111.2823x                      99.9991k                  898.5152u
     649.0000m           107.1357x                      99.9991k                  933.2954u
     650.0000m           103.1446x                      99.9990k                  969.4121u
     651.0000m            99.3032x                      99.9990k                    1.0069m
     652.0000m            95.6059x                      99.9990k                    1.0459m
     653.0000m            92.0472x                      99.9989k                    1.0863m
     654.0000m            88.6219x                      99.9989k                    1.1283m
     655.0000m            85.3250x                      99.9988k                    1.1719m
     656.0000m            82.1516x                      99.9988k                    1.2172m
     657.0000m            79.0972x                      99.9987k                    1.2642m
     658.0000m            76.1572x                      99.9987k                    1.3130m
     659.0000m            73.3274x                      99.9986k                    1.3636m
     660.0000m            70.6036x                      99.9986k                    1.4163m
     661.0000m            67.9818x                      99.9985k                    1.4709m
     662.0000m            65.4581x                      99.9985k                    1.5276m
     663.0000m            63.0290x                      99.9984k                    1.5865m
     664.0000m            60.6907x                      99.9984k                    1.6476m
     665.0000m            58.4400x                      99.9983k                    1.7111m
     666.0000m            56.2736x                      99.9982k                    1.7769m
     667.0000m            54.1881x                      99.9982k                    1.8453m
     668.0000m            52.1807x                      99.9981k                    1.9163m
     669.0000m            50.2484x                      99.9980k                    1.9900m
     670.0000m            48.3884x                      99.9980k                    2.0665m
     671.0000m            46.5978x                      99.9979k                    2.1459m
     672.0000m            44.8743x                      99.9978k                    2.2283m
     673.0000m            43.2151x                      99.9977k                    2.3139m
     674.0000m            41.6179x                      99.9976k                    2.4027m
     675.0000m            40.0804x                      99.9975k                    2.4949m
     676.0000m            38.6003x                      99.9974k                    2.5906m
     677.0000m            37.1755x                      99.9973k                    2.6898m
     678.0000m            35.8039x                      99.9972k                    2.7929m
     679.0000m            34.4835x                      99.9971k                    2.8998m
     680.0000m            33.2124x                      99.9970k                    3.0108m
     681.0000m            31.9886x                      99.9969k                    3.1260m
     682.0000m            30.8106x                      99.9968k                    3.2455m
     683.0000m            29.6764x                      99.9967k                    3.3696m
     684.0000m            28.5846x                      99.9965k                    3.4983m
     685.0000m            27.5334x                      99.9964k                    3.6318m
     686.0000m            26.5214x                      99.9963k                    3.7704m
     687.0000m            25.5472x                      99.9961k                    3.9142m
     688.0000m            24.6092x                      99.9960k                    4.0634m
     689.0000m            23.7061x                      99.9958k                    4.2182m
     690.0000m            22.8366x                      99.9957k                    4.3788m
     691.0000m            21.9995x                      99.9955k                    4.5455m
     692.0000m            21.1936x                      99.9953k                    4.7183m
     693.0000m            20.4176x                      99.9952k                    4.8976m
     694.0000m            19.6704x                      99.9950k                    5.0837m
     695.0000m            18.9511x                      99.9948k                    5.2766m
     696.0000m            18.2584x                      99.9946k                    5.4768m
     697.0000m            17.5915x                      99.9944k                    5.6845m
     698.0000m            16.9494x                      99.9942k                    5.8998m
     699.0000m            16.3311x                      99.9939k                    6.1232m
     700.0000m            15.7357x                      99.9937k                    6.3549m
     701.0000m            15.1625x                      99.9935k                    6.5951m
     702.0000m            14.6105x                      99.9932k                    6.8443m
     703.0000m            14.0789x                      99.9930k                    7.1027m
     704.0000m            13.5671x                      99.9927k                    7.3707m
     705.0000m            13.0742x                      99.9924k                    7.6486m
     706.0000m            12.5995x                      99.9921k                    7.9367m
     707.0000m            12.1425x                      99.9918k                    8.2354m
     708.0000m            11.7023x                      99.9915k                    8.5452m
     709.0000m            11.2785x                      99.9912k                    8.8664m
     710.0000m            10.8703x                      99.9909k                    9.1993m
     711.0000m            10.4771x                      99.9905k                    9.5445m
     712.0000m            10.0986x                      99.9902k                    9.9023m
     713.0000m             9.7339x                      99.9898k                   10.2732m
     714.0000m             9.3828x                      99.9894k                   10.6577m
     715.0000m             9.0446x                      99.9890k                   11.0562m
     716.0000m             8.7189x                      99.9886k                   11.4693m
     717.0000m             8.4052x                      99.9882k                   11.8974m
     718.0000m             8.1030x                      99.9877k                   12.3410m
     719.0000m             7.8120x                      99.9873k                   12.8008m
     720.0000m             7.5317x                      99.9868k                   13.2772m
     721.0000m             7.2617x                      99.9863k                   13.7709m
     722.0000m             7.0016x                      99.9858k                   14.2824m
     723.0000m             6.7511x                      99.9853k                   14.8124m
     724.0000m             6.5097x                      99.9847k                   15.3615m
     725.0000m             6.2773x                      99.9842k                   15.9303m
     726.0000m             6.0534x                      99.9836k                   16.5196m
     727.0000m             5.8377x                      99.9830k                   17.1300m
     728.0000m             5.6299x                      99.9823k                   17.7623m
     729.0000m             5.4297x                      99.9817k                   18.4172m
     730.0000m             5.2368x                      99.9810k                   19.0955m
     731.0000m             5.0510x                      99.9803k                   19.7979m
     732.0000m             4.8720x                      99.9795k                   20.5253m
     733.0000m             4.6995x                      99.9788k                   21.2786m
     734.0000m             4.5334x                      99.9780k                   22.0585m
     735.0000m             4.3733x                      99.9772k                   22.8660m
     736.0000m             4.2190x                      99.9764k                   23.7021m
     737.0000m             4.0704x                      99.9755k                   24.5676m
     738.0000m             3.9272x                      99.9746k                   25.4635m
     739.0000m             3.7892x                      99.9736k                   26.3910m
     740.0000m             3.6562x                      99.9727k                   27.3509m
     741.0000m             3.5280x                      99.9717k                   28.3443m
     742.0000m             3.4045x                      99.9706k                   29.3725m
     743.0000m             3.2855x                      99.9696k                   30.4364m
     744.0000m             3.1708x                      99.9685k                   31.5373m
     745.0000m             3.0603x                      99.9673k                   32.6764m
     746.0000m             2.9538x                      99.9661k                   33.8549m
     747.0000m             2.8511x                      99.9649k                   35.0741m
     748.0000m             2.7521x                      99.9636k                   36.3353m
     749.0000m             2.6568x                      99.9623k                   37.6398m
     750.0000m             2.5648x                      99.9609k                   38.9890m
     751.0000m             2.4762x                      99.9595k                   40.3844m
     752.0000m             2.3908x                      99.9581k                   41.8275m
     753.0000m             2.3084x                      99.9565k                   43.3196m
     754.0000m             2.2290x                      99.9550k                   44.8624m
     755.0000m             2.1525x                      99.9534k                   46.4575m
     756.0000m             2.0787x                      99.9517k                   48.1065m
     757.0000m             2.0076x                      99.9500k                   49.8111m
     758.0000m             1.9390x                      99.9482k                   51.5730m
     759.0000m             1.8729x                      99.9463k                   53.3939m
     760.0000m             1.8091x                      99.9444k                   55.2758m
     761.0000m             1.7476x                      99.9424k                   57.2204m
     762.0000m             1.6883x                      99.9404k                   59.2297m
     763.0000m             1.6312x                      99.9383k                   61.3056m
     764.0000m             1.5760x                      99.9361k                   63.4502m
     765.0000m             1.5229x                      99.9338k                   65.6655m
     766.0000m             1.4716x                      99.9315k                   67.9536m
     767.0000m             1.4221x                      99.9291k                   70.3168m
     768.0000m             1.3744x                      99.9266k                   72.7572m
     769.0000m             1.3284x                      99.9240k                   75.2771m
     770.0000m             1.2840x                      99.9214k                   77.8790m
     771.0000m             1.2412x                      99.9186k                   80.5651m
     772.0000m             1.1999x                      99.9158k                   83.3379m
     773.0000m             1.1601x                      99.9129k                   86.2000m
     774.0000m             1.1217x                      99.9099k                   89.1539m
     775.0000m             1.0846x                      99.9067k                   92.2023m
     776.0000m             1.0488x                      99.9035k                   95.3479m
     777.0000m             1.0143x                      99.9002k                   98.5934m
     778.0000m           980.9522k                      99.8968k                  101.9417m
     779.0000m           948.8052k                      99.8932k                  105.3956m
     780.0000m           917.7825k                      99.8896k                  108.9582m
     781.0000m           887.8432k                      99.8858k                  112.6324m
     782.0000m           858.9481k                      99.8819k                  116.4214m
     783.0000m           831.0594k                      99.8779k                  120.3282m
     784.0000m           804.1405k                      99.8737k                  124.3563m
     785.0000m           778.1565k                      99.8695k                  128.5087m
     786.0000m           753.0735k                      99.8650k                  132.7890m
     787.0000m           728.8590k                      99.8605k                  137.2006m
     788.0000m           705.4817k                      99.8558k                  141.7470m
     789.0000m           682.9113k                      99.8510k                  146.4318m
     790.0000m           661.1188k                      99.8460k                  151.2586m
     791.0000m           640.0762k                      99.8409k                  156.2313m
     792.0000m           619.7565k                      99.8356k                  161.3536m
     793.0000m           600.1338k                      99.8301k                  166.6294m
     794.0000m           581.1830k                      99.8245k                  172.0627m
     795.0000m           562.8800k                      99.8187k                  177.6576m
     796.0000m           545.2016k                      99.8127k                  183.4183m
     797.0000m           528.1255k                      99.8066k                  189.3488m
     798.0000m           511.6300k                      99.8002k                  195.4536m
     799.0000m           495.6946k                      99.7937k                  201.7370m
     800.0000m           480.2990k                      99.7870k                  208.2035m
     801.0000m           465.4242k                      99.7801k                  214.8576m
     802.0000m           451.0516k                      99.7730k                  221.7040m
     803.0000m           437.1632k                      99.7656k                  228.7474m
     804.0000m           423.7419k                      99.7581k                  235.9926m
     805.0000m           410.7712k                      99.7503k                  243.4444m
     806.0000m           398.2349k                      99.7423k                  251.1080m
     807.0000m           386.1177k                      99.7341k                  258.9883m
     808.0000m           374.4048k                      99.7257k                  267.0905m
     809.0000m           363.0819k                      99.7170k                  275.4198m
     810.0000m           352.1352k                      99.7080k                  283.9817m
     811.0000m           341.5515k                      99.6988k                  292.7815m
     812.0000m           331.3179k                      99.6893k                  301.8248m
     813.0000m           321.4222k                      99.6796k                  311.1171m
     814.0000m           311.8525k                      99.6696k                  320.6643m
     815.0000m           302.5972k                      99.6593k                  330.4721m
     816.0000m           293.6456k                      99.6487k                  340.5465m
     817.0000m           284.9867k                      99.6379k                  350.8934m
     818.0000m           276.6106k                      99.6267k                  361.5189m
     819.0000m           268.5072k                      99.6152k                  372.4293m
     820.0000m           260.6671k                      99.6035k                  383.6309m
     821.0000m           253.0812k                      99.5914k                  395.1300m
     822.0000m           245.7405k                      99.5789k                  406.9332m
     823.0000m           238.6365k                      99.5662k                  419.0472m
     824.0000m           231.7612k                      99.5530k                  431.4785m
     825.0000m           225.1065k                      99.5396k                  444.2341m
     826.0000m           218.6648k                      99.5258k                  457.3208m
     827.0000m           212.4288k                      99.5116k                  470.7458m
     828.0000m           206.3914k                      99.4970k                  484.5161m
     829.0000m           200.5458k                      99.4821k                  498.6391m
     830.0000m           194.8854k                      99.4667k                  513.1220m
     831.0000m           189.4038k                      99.4510k                  527.9724m
     832.0000m           184.0949k                      99.4348k                  543.1980m
     833.0000m           178.9528k                      99.4183k                  558.8063m
     834.0000m           173.9719k                      99.4013k                  574.8052m
     835.0000m           169.1467k                      99.3839k                  591.2027m
     836.0000m           164.4718k                      99.3660k                  608.0069m
     837.0000m           159.9421k                      99.3477k                  625.2259m
     838.0000m           155.5529k                      99.3289k                  642.8681m
     839.0000m           151.2992k                      99.3097k                  660.9418m
     840.0000m           147.1766k                      99.2900k                  679.4558m
     841.0000m           143.1806k                      99.2698k                  698.4186m
     842.0000m           139.3070k                      99.2491k                  717.8390m
     843.0000m           135.5516k                      99.2278k                  737.7261m
     844.0000m           131.9106k                      99.2061k                  758.0889m
     845.0000m           128.3801k                      99.1838k                  778.9367m
     846.0000m           124.9564k                      99.1610k                  800.2787m
     847.0000m           121.6361k                      99.1376k                  822.1245m
     848.0000m           118.4155k                      99.1137k                  844.4837m
     849.0000m           115.2916k                      99.0892k                  867.3661m
     850.0000m           112.2610k                      99.0641k                  890.7815m
     851.0000m           109.3207k                      99.0384k                  914.7401m
     852.0000m           106.4677k                      99.0122k                  939.2519m
     853.0000m           103.6992k                      98.9853k                  964.3274m
     854.0000m           101.0124k                      98.9577k                  989.9771m
     855.0000m            98.4047k                      98.9295k                    1.0162 
     856.0000m            95.8734k                      98.9007k                    1.0430 
     857.0000m            93.4162k                      98.8712k                    1.0705 
     858.0000m            91.0306k                      98.8411k                    1.0985 
     859.0000m            88.7142k                      98.8102k                    1.1272 
     860.0000m            86.4650k                      98.7786k                    1.1565 
     861.0000m            84.2806k                      98.7464k                    1.1865 
     862.0000m            82.1591k                      98.7134k                    1.2171 
     863.0000m            80.0985k                      98.6796k                    1.2485 
     864.0000m            78.0967k                      98.6451k                    1.2805 
     865.0000m            76.1520k                      98.6099k                    1.3132 
     866.0000m            74.2625k                      98.5738k                    1.3466 
     867.0000m            72.4265k                      98.5370k                    1.3807 
     868.0000m            70.6424k                      98.4993k                    1.4156 
     869.0000m            68.9084k                      98.4609k                    1.4512 
     870.0000m            67.2230k                      98.4216k                    1.4876 
     871.0000m            65.5847k                      98.3814k                    1.5247 
     872.0000m            63.9921k                      98.3404k                    1.5627 
     873.0000m            62.4437k                      98.2985k                    1.6014 
     874.0000m            60.9382k                      98.2557k                    1.6410 
     875.0000m            59.4743k                      98.2120k                    1.6814 
     876.0000m            58.0506k                      98.1674k                    1.7226 
     877.0000m            56.6660k                      98.1218k                    1.7647 
     878.0000m            55.3193k                      98.0753k                    1.8077 
     879.0000m            54.0092k                      98.0279k                    1.8515 
     880.0000m            52.7348k                      97.9794k                    1.8963 
     881.0000m            51.4949k                      97.9300k                    1.9419 
     882.0000m            50.2885k                      97.8795k                    1.9885 
     883.0000m            49.1146k                      97.8280k                    2.0361 
     884.0000m            47.9722k                      97.7755k                    2.0845 
     885.0000m            46.8605k                      97.7219k                    2.1340 
     886.0000m            45.7784k                      97.6672k                    2.1844 
     887.0000m            44.7251k                      97.6114k                    2.2359 
     888.0000m            43.6998k                      97.5546k                    2.2883 
     889.0000m            42.7017k                      97.4966k                    2.3418 
     890.0000m            41.7299k                      97.4374k                    2.3964 
     891.0000m            40.7837k                      97.3772k                    2.4520 
     892.0000m            39.8623k                      97.3157k                    2.5086 
     893.0000m            38.9651k                      97.2531k                    2.5664 
     894.0000m            38.0913k                      97.1892k                    2.6253 
     895.0000m            37.2403k                      97.1242k                    2.6853 
     896.0000m            36.4114k                      97.0579k                    2.7464 
     897.0000m            35.6040k                      96.9903k                    2.8087 
     898.0000m            34.8175k                      96.9215k                    2.8721 
     899.0000m            34.0513k                      96.8514k                    2.9367 
     900.0000m            33.3048k                      96.7800k                    3.0026 
     901.0000m            32.5775k                      96.7073k                    3.0696 
     902.0000m            31.8688k                      96.6333k                    3.1379 
     903.0000m            31.1782k                      96.5579k                    3.2074 
     904.0000m            30.5053k                      96.4812k                    3.2781 
     905.0000m            29.8495k                      96.4031k                    3.3501 
     906.0000m            29.2103k                      96.3236k                    3.4235 
     907.0000m            28.5873k                      96.2427k                    3.4981 
     908.0000m            27.9801k                      96.1604k                    3.5740 
     909.0000m            27.3882k                      96.0767k                    3.6512 
     910.0000m            26.8112k                      95.9915k                    3.7298 
     911.0000m            26.2487k                      95.9048k                    3.8097 
     912.0000m            25.7004k                      95.8167k                    3.8910 
     913.0000m            25.1657k                      95.7271k                    3.9737 
     914.0000m            24.6445k                      95.6360k                    4.0577 
     915.0000m            24.1362k                      95.5434k                    4.1432 
     916.0000m            23.6406k                      95.4493k                    4.2300 
     917.0000m            23.1573k                      95.3536k                    4.3183 
     918.0000m            22.6860k                      95.2564k                    4.4080 
     919.0000m            22.2264k                      95.1576k                    4.4992 
     920.0000m            21.7781k                      95.0573k                    4.5918 
     921.0000m            21.3410k                      94.9554k                    4.6858 
     922.0000m            20.9146k                      94.8519k                    4.7814 
     923.0000m            20.4987k                      94.7468k                    4.8784 
     924.0000m            20.0930k                      94.6401k                    4.9769 
     925.0000m            19.6973k                      94.5318k                    5.0768 
     926.0000m            19.3113k                      94.4219k                    5.1783 
     927.0000m            18.9347k                      94.3103k                    5.2813 
     928.0000m            18.5673k                      94.1971k                    5.3858 
     929.0000m            18.2089k                      94.0822k                    5.4918 
     930.0000m            17.8592k                      93.9658k                    5.5993 
     931.0000m            17.5181k                      93.8476k                    5.7084 
     932.0000m            17.1852k                      93.7278k                    5.8190 
     933.0000m            16.8604k                      93.6063k                    5.9311 
     934.0000m            16.5434k                      93.4832k                    6.0447 
     935.0000m            16.2342k                      93.3584k                    6.1598 
     936.0000m            15.9324k                      93.2319k                    6.2765 
     937.0000m            15.6379k                      93.1038k                    6.3947 
     938.0000m            15.3505k                      92.9740k                    6.5145 
     939.0000m            15.0700k                      92.8425k                    6.6357 
     940.0000m            14.7962k                      92.7093k                    6.7585 
     941.0000m            14.5290k                      92.5744k                    6.8828 
     942.0000m            14.2683k                      92.4379k                    7.0086 
     943.0000m            14.0137k                      92.2997k                    7.1359 
     944.0000m            13.7653k                      92.1599k                    7.2646 
     945.0000m            13.5228k                      92.0183k                    7.3949 
     946.0000m            13.2861k                      91.8752k                    7.5267 
     947.0000m            13.0550k                      91.7303k                    7.6599 
     948.0000m            12.8294k                      91.5838k                    7.7946 
     949.0000m            12.6092k                      91.4356k                    7.9307 
     950.0000m            12.3942k                      91.2858k                    8.0683 
     951.0000m            12.1844k                      91.1344k                    8.2072 
     952.0000m            11.9794k                      90.9813k                    8.3476 
     953.0000m            11.7794k                      90.8266k                    8.4894 
     954.0000m            11.5840k                      90.6702k                    8.6326 
     955.0000m            11.3933k                      90.5123k                    8.7771 
     956.0000m            11.2071k                      90.3527k                    8.9229 
     957.0000m            11.0252k                      90.1916k                    9.0701 
     958.0000m            10.8476k                      90.0288k                    9.2186 
     959.0000m            10.6742k                      89.8644k                    9.3684 
     960.0000m            10.5049k                      89.6985k                    9.5194 
     961.0000m            10.3395k                      89.5310k                    9.6716 
     962.0000m            10.1780k                      89.3619k                    9.8251 
     963.0000m            10.0203k                      89.1913k                    9.9797 
     964.0000m             9.8663k                      89.0190k                   10.1355 
     965.0000m             9.7158k                      88.8453k                   10.2925 
     966.0000m             9.5689k                      88.6700k                   10.4505 
     967.0000m             9.4254k                      88.4931k                   10.6096 
     968.0000m             9.2853k                      88.3147k                   10.7698 
     969.0000m             9.1484k                      88.1347k                   10.9309 
     970.0000m             9.0146k                      87.9532k                   11.0931 
     971.0000m             8.8840k                      87.7701k                   11.2561 
     972.0000m             8.7565k                      87.5855k                   11.4201 
     973.0000m             8.6319k                      87.3993k                   11.5850 
     974.0000m             8.5101k                      87.2115k                   11.7507 
     975.0000m             8.3913k                      87.0222k                   11.9172 
     976.0000m             8.2751k                      86.8312k                   12.0844 
     977.0000m             8.1617k                      86.6386k                   12.2523 
     978.0000m             8.0509k                      86.4443k                   12.4209 
     979.0000m             7.9427k                      86.2483k                   12.5901 
     980.0000m             7.8370k                      86.0506k                   12.7599 
     981.0000m             7.7338k                      85.8511k                   12.9302 
     982.0000m             7.6330k                      85.6498k                   13.1010 
     983.0000m             7.5346k                      85.4466k                   13.2721 
     984.0000m             7.4385k                      85.2414k                   13.4436 
     985.0000m             7.3447k                      85.0342k                   13.6153 
     986.0000m             7.2531k                      84.8248k                   13.7873 
     987.0000m             7.1637k                      84.6131k                   13.9593 
     988.0000m             7.0764k                      84.3991k                   14.1315 
     989.0000m             6.9913k                      84.1824k                   14.3036 
     990.0000m             6.9082k                      83.9630k                   14.4755 
     991.0000m             6.8272k                      83.7407k                   14.6472 
     992.0000m             6.7483k                      83.5151k                   14.8186 
     993.0000m             6.6713k                      83.2861k                   14.9895 
     994.0000m             6.5964k                      83.0533k                   15.1598 
     995.0000m             6.5234k                      82.8162k                   15.3294 
     996.0000m             6.4525k                      82.5744k                   15.4980 
     997.0000m             6.3835k                      82.3275k                   15.6655 
     998.0000m             6.3165k                      82.0747k                   15.8316 
     999.0000m             6.2515k                      81.8153k                   15.9961 
       1.0000              6.1886k                      81.5483k                   16.1588 
       1.0010              6.1278k                      81.2728k                   16.3191 
       1.0020              6.0691k                      80.9873k                   16.4768 
       1.0030              6.0127k                      80.6902k                   16.6314 
       1.0040              5.9587k                      80.3797k                   16.7822 
       1.0050              5.9072k                      80.0533k                   16.9286 
       1.0060              5.8584k                      79.7078k                   17.0696 
       1.0070              5.8125k                      79.3396k                   17.2042 
       1.0080              5.7700k                      78.9437k                   17.3310 
       1.0090              5.7313k                      78.5139k                   17.4481 
       1.0100              5.6969k                      78.0420k                   17.5535 
       1.0110              5.6676k                      77.5171k                   17.6440 
       1.0120              5.6447k                      76.9247k                   17.7157 
  
 **info** dc convergence successful at Newton-Raphson method 
1****** PrimeSim HSPICE -- R-2020.12-SP2 linux64 (May 24 2021 7074677) ******
 ******  
 ** 110061217  hw3_b

 ****** operating point information tnom=  25.000 temp=  25.000 ******
 ****** operating point status is all       simulation time is     0.     
    node    =voltage      node    =voltage      node    =voltage

 +0:vb2     =   1.0120  0:vdd     =   1.8000  0:vin     = 500.0000m
 +0:vout    = 788.7143m


 **** voltage sources

 subckt                                   
 element  0:vin      0:vb2      0:vdd     
  volts    500.0000m    1.0120     1.8000 
  current   10.1129u    0.       -10.1129u
  power     -5.0564u    0.        18.2031u

     total voltage source power dissipation=   13.1467u       watts



 **** resistors

 subckt             
 element  0:rd      
  r value  100.0000k
  v drop     1.0113 
  current   10.1129u
  power     10.2270u



 **** mosfets


 subckt             
 element  0:mn      
 model    0:n_18.1  
 region   Saturation
  id        10.1129u
  ibs     -565.3016a
  ibd     -891.7188a
  vgs      512.0000m
  vds      288.7143m
  vbs     -500.0000m
  vth      479.9309m
  vdsat     81.5058m
  vod       32.0691m
  beta       4.7083m
  gam eff  519.9006m
  gm       196.1642u
  gds        2.9998u
  gmb       31.1424u
  cdtot     19.7335f
  cgtot     85.8967f
  cstot     89.4453f
  cbtot     48.2201f
  cgs       70.5705f
  cgd        5.3514f







 ****     small-signal transfer characteristics

      v(vout)/vin                              =   17.7157 
      input resistance at             vin      =    5.6447k
      output resistance at v(vout)             =   76.9247k




          ***** job concluded
 ******  
 ** 110061217  hw3_b

 ****** job statistics summary tnom=  25.000 temp=  25.000 ******
  
 ******  Machine Information  ******
 CPU:
 model name	: Intel(R) Xeon(R) Gold 6326 CPU @ 2.90GHz
 cpu MHz	: 800.225
 CPU(s)		: 64
  
 OS:
 Linux version 3.10.0-1160.95.1.el7.x86_64 (mockbuild@kbuilder.bsys.centos.org) (gcc version 4.8.5 20150623 (Red Hat 4.8.5-44) (GCC) ) #1 SMP Mon Jul 24 13:59:37 UTC 2023

 System loadavg : 0.12 0.14 0.14 2/1441 63905


  ******  PrimeSim HSPICE Threads Information  ******

  Command Line Threads Count :     1
  Available CPU Count        :    64
  Actual Threads Count       :     1


  ******  Circuit Statistics  ******
  # nodes       =       7 # elements   =       5
  # resistors   =       1 # capacitors =       0 # inductors   =       0
  # mutual_inds =       0 # vccs       =       0 # vcvs        =       0
  # cccs        =       0 # ccvs       =       0 # volt_srcs   =       3
  # curr_srcs   =       0 # diodes     =       0 # bjts        =       0
  # jfets       =       0 # mosfets    =       1 # U elements  =       0
  # T elements  =       0 # W elements =       0 # B elements  =       0
  # S elements  =       0 # P elements =       0 # va device   =       0
  # vector_srcs =       0 # N elements =       0


  ******  Runtime Statistics (seconds)  ******

  analysis           time    # points   tot. iter  conv.iter
  op point           0.01           1           6
  dc sweep           0.04        1013        2029
  readin             0.02
  errchk             0.00
  setup              0.00
  output             0.00


           peak memory used        470.98 megabytes
           total cpu time            0.07 seconds
           total elapsed time        0.58 seconds
           job started at     10:32:04 11/14/2023
           job ended   at     10:32:04 11/14/2023

>info:         ***** hspice job concluded
           job total runtime         0.58 seconds


 lic: Release hspice token(s) 
 lic: total license checkout elapse time:        0.51(s)
