Using: /usr/cadtool/cad/synopsys/hspice/2020.12-sp2/hspice/linux64/hspice hw3_a.sp
 ****** PrimeSim HSPICE -- R-2020.12-SP2 linux64 (May 24 2021 7074677) ******
  Copyright (c) 1986 - 2023 by Synopsys, Inc. All Rights Reserved.
  This software and the associated documentation are proprietary
  to Synopsys, Inc. This software may only be used in accordance
  with the terms and conditions of a written license agreement with
  Synopsys, Inc. All other use, reproduction, or distribution of
  this software is strictly prohibited.
  Input File: hw3_a.sp                                                          
  Command line options: /usr/cadtool/cad/synopsys/hspice/2020.12-sp2/hspice/linux64/hspice hw3_a.sp
  Start time: Tue Nov 14 02:24:48 2023
 lic:  
 lic: FLEXlm: SDK_12.9.5 
 lic: USER:   u110061217           HOSTNAME: ws24 
 lic: HOSTID: "507c6f09f6b9"       PID:      14796 
 lic: Using FLEXlm license file: 
 lic: 26585@lstn 
 lic: Checkout 1 hspice 
 lic: License/Maintenance for hspice will expire on 31-mar-2024/2023.03 
 lic: 267(in_use)/450(total) FLOATING license(s) on SERVER 26585@lstn 
 lic:   
 

  
      
 *****************************************************************
 ******  option summary
 ******
 runlvl  = 3         bypass  = 2.0000    




 ****     small-signal transfer characteristics

        vin        input resistance at vin       output resistance at v(vout)     v(vout)/vin      

       0.                1.000e+20                      37.7585k                  -11.4358u
       1.0000m           1.000e+20                      37.7585k                  -11.8620u
       2.0000m           1.000e+20                      37.7585k                  -12.3040u
       3.0000m           1.000e+20                      37.7585k                  -12.7623u
       4.0000m           1.000e+20                      37.7585k                  -13.2377u
       5.0000m           1.000e+20                      37.7585k                  -13.7306u
       6.0000m           1.000e+20                      37.7585k                  -14.2418u
       7.0000m           1.000e+20                      37.7585k                  -14.7719u
       8.0000m           1.000e+20                      37.7585k                  -15.3216u
       9.0000m           1.000e+20                      37.7585k                  -15.8917u
      10.0000m           1.000e+20                      37.7585k                  -16.4828u
      11.0000m           1.000e+20                      37.7585k                  -17.0958u
      12.0000m           1.000e+20                      37.7585k                  -17.7314u
      13.0000m           1.000e+20                      37.7585k                  -18.3905u
      14.0000m           1.000e+20                      37.7585k                  -19.0739u
      15.0000m           1.000e+20                      37.7585k                  -19.7826u
      16.0000m           1.000e+20                      37.7585k                  -20.5174u
      17.0000m           1.000e+20                      37.7585k                  -21.2793u
      18.0000m           1.000e+20                      37.7585k                  -22.0693u
      19.0000m           1.000e+20                      37.7585k                  -22.8884u
      20.0000m           1.000e+20                      37.7585k                  -23.7376u
      21.0000m           1.000e+20                      37.7585k                  -24.6182u
      22.0000m           1.000e+20                      37.7585k                  -25.5311u
      23.0000m           1.000e+20                      37.7585k                  -26.4777u
      24.0000m           1.000e+20                      37.7585k                  -27.4590u
      25.0000m           1.000e+20                      37.7585k                  -28.4764u
      26.0000m           1.000e+20                      37.7585k                  -29.5312u
      27.0000m           1.000e+20                      37.7585k                  -30.6248u
      28.0000m           1.000e+20                      37.7585k                  -31.7584u
      29.0000m           1.000e+20                      37.7586k                  -32.9337u
      30.0000m           1.000e+20                      37.7586k                  -34.1521u
      31.0000m           1.000e+20                      37.7586k                  -35.4151u
      32.0000m           1.000e+20                      37.7586k                  -36.7244u
      33.0000m           1.000e+20                      37.7586k                  -38.0817u
      34.0000m           1.000e+20                      37.7586k                  -39.4886u
      35.0000m           1.000e+20                      37.7586k                  -40.9470u
      36.0000m           1.000e+20                      37.7586k                  -42.4588u
      37.0000m           1.000e+20                      37.7586k                  -44.0257u
      38.0000m           1.000e+20                      37.7586k                  -45.6499u
      39.0000m           1.000e+20                      37.7586k                  -47.3334u
      40.0000m           1.000e+20                      37.7586k                  -49.0783u
      41.0000m           1.000e+20                      37.7586k                  -50.8868u
      42.0000m           1.000e+20                      37.7586k                  -52.7613u
      43.0000m           1.000e+20                      37.7586k                  -54.7039u
      44.0000m           1.000e+20                      37.7586k                  -56.7173u
      45.0000m           1.000e+20                      37.7586k                  -58.8040u
      46.0000m           1.000e+20                      37.7586k                  -60.9664u
      47.0000m           1.000e+20                      37.7586k                  -63.2074u
      48.0000m           1.000e+20                      37.7586k                  -65.5298u
      49.0000m           1.000e+20                      37.7586k                  -67.9365u
      50.0000m           1.000e+20                      37.7587k                  -70.4303u
      51.0000m           1.000e+20                      37.7587k                  -73.0146u
      52.0000m           1.000e+20                      37.7587k                  -75.6924u
      53.0000m           1.000e+20                      37.7587k                  -78.4670u
      54.0000m           1.000e+20                      37.7587k                  -81.3420u
      55.0000m           1.000e+20                      37.7587k                  -84.3209u
      56.0000m           1.000e+20                      37.7587k                  -87.4072u
      57.0000m           1.000e+20                      37.7587k                  -90.6049u
      58.0000m           1.000e+20                      37.7587k                  -93.9179u
      59.0000m           1.000e+20                      37.7587k                  -97.3502u
      60.0000m           1.000e+20                      37.7587k                 -100.9060u
      61.0000m           1.000e+20                      37.7587k                 -104.5896u
      62.0000m           1.000e+20                      37.7588k                 -108.4056u
      63.0000m           1.000e+20                      37.7588k                 -112.3586u
      64.0000m           1.000e+20                      37.7588k                 -116.4533u
      65.0000m           1.000e+20                      37.7588k                 -120.6948u
      66.0000m           1.000e+20                      37.7588k                 -125.0882u
      67.0000m           1.000e+20                      37.7588k                 -129.6387u
      68.0000m           1.000e+20                      37.7588k                 -134.3518u
      69.0000m           1.000e+20                      37.7588k                 -139.2332u
      70.0000m           1.000e+20                      37.7589k                 -144.2888u
      71.0000m           1.000e+20                      37.7589k                 -149.5245u
      72.0000m           1.000e+20                      37.7589k                 -154.9466u
      73.0000m           1.000e+20                      37.7589k                 -160.5616u
      74.0000m           1.000e+20                      37.7589k                 -166.3760u
      75.0000m           1.000e+20                      37.7589k                 -172.3969u
      76.0000m           1.000e+20                      37.7589k                 -178.6312u
      77.0000m           1.000e+20                      37.7590k                 -185.0864u
      78.0000m           1.000e+20                      37.7590k                 -191.7699u
      79.0000m           1.000e+20                      37.7590k                 -198.6897u
      80.0000m           1.000e+20                      37.7590k                 -205.8538u
      81.0000m           1.000e+20                      37.7590k                 -213.2705u
      82.0000m           1.000e+20                      37.7591k                 -220.9484u
      83.0000m           1.000e+20                      37.7591k                 -228.8965u
      84.0000m           1.000e+20                      37.7591k                 -237.1239u
      85.0000m           1.000e+20                      37.7591k                 -245.6400u
      86.0000m           1.000e+20                      37.7592k                 -254.4547u
      87.0000m           1.000e+20                      37.7592k                 -263.5780u
      88.0000m           1.000e+20                      37.7592k                 -273.0203u
      89.0000m           1.000e+20                      37.7592k                 -282.7923u
      90.0000m           1.000e+20                      37.7593k                 -292.9052u
      91.0000m           1.000e+20                      37.7593k                 -303.3703u
      92.0000m           1.000e+20                      37.7593k                 -314.1995u
      93.0000m           1.000e+20                      37.7594k                 -325.4048u
      94.0000m           1.000e+20                      37.7594k                 -336.9988u
      95.0000m           1.000e+20                      37.7594k                 -348.9944u
      96.0000m           1.000e+20                      37.7595k                 -361.4049u
      97.0000m           1.000e+20                      37.7595k                 -374.2441u
      98.0000m           1.000e+20                      37.7595k                 -387.5261u
      99.0000m           1.000e+20                      37.7596k                 -401.2654u
     100.0000m           1.000e+20                      37.7596k                 -415.4772u
     101.0000m           1.000e+20                      37.7596k                 -430.1769u
     102.0000m           1.000e+20                      37.7597k                 -445.3805u
     103.0000m           1.000e+20                      37.7597k                 -461.1044u
     104.0000m           1.000e+20                      37.7598k                 -477.3656u
     105.0000m           1.000e+20                      37.7598k                 -494.1814u
     106.0000m           1.000e+20                      37.7599k                 -511.5700u
     107.0000m           1.000e+20                      37.7599k                 -529.5497u
     108.0000m           1.000e+20                      37.7600k                 -548.1396u
     109.0000m           1.000e+20                      37.7600k                 -567.3594u
     110.0000m           1.000e+20                      37.7601k                 -587.2292u
     111.0000m           1.000e+20                      37.7602k                 -607.7699u
     112.0000m           1.000e+20                      37.7602k                 -629.0027u
     113.0000m           1.000e+20                      37.7603k                 -650.9498u
     114.0000m           1.000e+20                      37.7603k                 -673.6338u
     115.0000m           1.000e+20                      37.7604k                 -697.0780u
     116.0000m           1.000e+20                      37.7605k                 -721.3063u
     117.0000m           1.000e+20                      37.7605k                 -746.3435u
     118.0000m           1.000e+20                      37.7606k                 -772.2148u
     119.0000m           1.000e+20                      37.7607k                 -798.9464u
     120.0000m           1.000e+20                      37.7608k                 -826.5650u
     121.0000m           1.000e+20                      37.7609k                 -855.0982u
     122.0000m           1.000e+20                      37.7609k                 -884.5744u
     123.0000m           1.000e+20                      37.7610k                 -915.0227u
     124.0000m           1.000e+20                      37.7611k                 -946.4729u
     125.0000m           1.000e+20                      37.7612k                 -978.9558u
     126.0000m           1.000e+20                      37.7613k                   -1.0125m
     127.0000m           1.000e+20                      37.7614k                   -1.0471m
     128.0000m           1.000e+20                      37.7615k                   -1.0829m
     129.0000m           1.000e+20                      37.7616k                   -1.1199m
     130.0000m           1.000e+20                      37.7617k                   -1.1580m
     131.0000m           1.000e+20                      37.7619k                   -1.1974m
     132.0000m           1.000e+20                      37.7620k                   -1.2380m
     133.0000m           1.000e+20                      37.7621k                   -1.2800m
     134.0000m           1.000e+20                      37.7622k                   -1.3233m
     135.0000m           1.000e+20                      37.7624k                   -1.3680m
     136.0000m           1.000e+20                      37.7625k                   -1.4141m
     137.0000m           1.000e+20                      37.7626k                   -1.4617m
     138.0000m           1.000e+20                      37.7628k                   -1.5108m
     139.0000m           1.000e+20                      37.7629k                   -1.5615m
     140.0000m           1.000e+20                      37.7631k                   -1.6138m
     141.0000m           1.000e+20                      37.7633k                   -1.6677m
     142.0000m           1.000e+20                      37.7634k                   -1.7233m
     143.0000m           1.000e+20                      37.7636k                   -1.7807m
     144.0000m           1.000e+20                      37.7638k                   -1.8399m
     145.0000m           1.000e+20                      37.7640k                   -1.9009m
     146.0000m           1.000e+20                      37.7641k                   -1.9639m
     147.0000m           1.000e+20                      37.7643k                   -2.0287m
     148.0000m           1.000e+20                      37.7645k                   -2.0956m
     149.0000m           1.000e+20                      37.7647k                   -2.1646m
     150.0000m           1.000e+20                      37.7650k                   -2.2357m
     151.0000m           1.000e+20                      37.7652k                   -2.3090m
     152.0000m           1.000e+20                      37.7654k                   -2.3845m
     153.0000m           1.000e+20                      37.7657k                   -2.4624m
     154.0000m           1.000e+20                      37.7659k                   -2.5426m
     155.0000m           1.000e+20                      37.7662k                   -2.6252m
     156.0000m           1.000e+20                      37.7664k                   -2.7104m
     157.0000m           1.000e+20                      37.7667k                   -2.7981m
     158.0000m           1.000e+20                      37.7670k                   -2.8884m
     159.0000m           1.000e+20                      37.7673k                   -2.9815m
     160.0000m           1.000e+20                      37.7676k                   -3.0774m
     161.0000m           1.000e+20                      37.7679k                   -3.1761m
     162.0000m           1.000e+20                      37.7682k                   -3.2777m
     163.0000m           1.000e+20                      37.7685k                   -3.3824m
     164.0000m           1.000e+20                      37.7688k                   -3.4902m
     165.0000m           1.000e+20                      37.7692k                   -3.6011m
     166.0000m           1.000e+20                      37.7696k                   -3.7153m
     167.0000m           1.000e+20                      37.7699k                   -3.8328m
     168.0000m           1.000e+20                      37.7703k                   -3.9538m
     169.0000m           1.000e+20                      37.7707k                   -4.0783m
     170.0000m           1.000e+20                      37.7711k                   -4.2064m
     171.0000m           1.000e+20                      37.7715k                   -4.3382m
     172.0000m           1.000e+20                      37.7720k                   -4.4737m
     173.0000m           1.000e+20                      37.7724k                   -4.6132m
     174.0000m           1.000e+20                      37.7729k                   -4.7567m
     175.0000m           1.000e+20                      37.7734k                   -4.9042m
     176.0000m           1.000e+20                      37.7738k                   -5.0560m
     177.0000m           1.000e+20                      37.7744k                   -5.2120m
     178.0000m           1.000e+20                      37.7749k                   -5.3724m
     179.0000m           1.000e+20                      37.7754k                   -5.5374m
     180.0000m           1.000e+20                      37.7760k                   -5.7070m
     181.0000m           1.000e+20                      37.7765k                   -5.8813m
     182.0000m           1.000e+20                      37.7771k                   -6.0604m
     183.0000m           1.000e+20                      37.7777k                   -6.2446m
     184.0000m           1.000e+20                      37.7784k                   -6.4338m
     185.0000m           1.000e+20                      37.7790k                   -6.6282m
     186.0000m           1.000e+20                      37.7797k                   -6.8280m
     187.0000m           1.000e+20                      37.7804k                   -7.0333m
     188.0000m           1.000e+20                      37.7811k                   -7.2441m
     189.0000m           1.000e+20                      37.7818k                   -7.4607m
     190.0000m           1.000e+20                      37.7825k                   -7.6831m
     191.0000m           1.000e+20                      37.7833k                   -7.9116m
     192.0000m           1.000e+20                      37.7841k                   -8.1462m
     193.0000m           1.000e+20                      37.7849k                   -8.3871m
     194.0000m           1.000e+20                      37.7858k                   -8.6344m
     195.0000m           1.000e+20                      37.7866k                   -8.8883m
     196.0000m           1.000e+20                      37.7875k                   -9.1490m
     197.0000m           1.000e+20                      37.7884k                   -9.4166m
     198.0000m           1.000e+20                      37.7894k                   -9.6912m
     199.0000m           1.000e+20                      37.7903k                   -9.9730m
     200.0000m           1.000e+20                      37.7913k                  -10.2622m
     201.0000m           1.000e+20                      37.7924k                  -10.5590m
     202.0000m           1.000e+20                      37.7934k                  -10.8635m
     203.0000m           1.000e+20                      37.7945k                  -11.1759m
     204.0000m           1.000e+20                      37.7957k                  -11.4964m
     205.0000m           1.000e+20                      37.7968k                  -11.8251m
     206.0000m           1.000e+20                      37.7980k                  -12.1623m
     207.0000m           1.000e+20                      37.7992k                  -12.5081m
     208.0000m           1.000e+20                      37.8005k                  -12.8628m
     209.0000m           1.000e+20                      37.8018k                  -13.2265m
     210.0000m           1.000e+20                      37.8031k                  -13.5994m
     211.0000m           1.000e+20                      37.8045k                  -13.9818m
     212.0000m           1.000e+20                      37.8059k                  -14.3738m
     213.0000m           1.000e+20                      37.8073k                  -14.7756m
     214.0000m           1.000e+20                      37.8088k                  -15.1876m
     215.0000m           1.000e+20                      37.8103k                  -15.6098m
     216.0000m           1.000e+20                      37.8119k                  -16.0426m
     217.0000m           1.000e+20                      37.8135k                  -16.4861m
     218.0000m           1.000e+20                      37.8152k                  -16.9406m
     219.0000m           1.000e+20                      37.8169k                  -17.4064m
     220.0000m           1.000e+20                      37.8186k                  -17.8837m
     221.0000m           1.000e+20                      37.8204k                  -18.3726m
     222.0000m           1.000e+20                      37.8223k                  -18.8736m
     223.0000m           1.000e+20                      37.8242k                  -19.3868m
     224.0000m           1.000e+20                      37.8261k                  -19.9125m
     225.0000m           1.000e+20                      37.8282k                  -20.4510m
     226.0000m           1.000e+20                      37.8302k                  -21.0026m
     227.0000m           1.000e+20                      37.8323k                  -21.5675m
     228.0000m           1.000e+20                      37.8345k                  -22.1461m
     229.0000m           1.000e+20                      37.8367k                  -22.7385m
     230.0000m           1.000e+20                      37.8390k                  -23.3452m
     231.0000m           1.000e+20                      37.8414k                  -23.9664m
     232.0000m           1.000e+20                      37.8438k                  -24.6025m
     233.0000m           1.000e+20                      37.8463k                  -25.2536m
     234.0000m           1.000e+20                      37.8488k                  -25.9203m
     235.0000m           1.000e+20                      37.8515k                  -26.6028m
     236.0000m           1.000e+20                      37.8542k                  -27.3014m
     237.0000m           1.000e+20                      37.8569k                  -28.0165m
     238.0000m           1.000e+20                      37.8597k                  -28.7484m
     239.0000m           1.000e+20                      37.8627k                  -29.4976m
     240.0000m           1.000e+20                      37.8656k                  -30.2642m
     241.0000m           1.000e+20                      37.8687k                  -31.0488m
     242.0000m           1.000e+20                      37.8718k                  -31.8517m
     243.0000m           1.000e+20                      37.8751k                  -32.6732m
     244.0000m           1.000e+20                      37.8784k                  -33.5138m
     245.0000m           1.000e+20                      37.8818k                  -34.3739m
     246.0000m           1.000e+20                      37.8852k                  -35.2538m
     247.0000m           1.000e+20                      37.8888k                  -36.1541m
     248.0000m           1.000e+20                      37.8925k                  -37.0750m
     249.0000m           1.000e+20                      37.8962k                  -38.0170m
     250.0000m           1.000e+20                      37.9001k                  -38.9806m
     251.0000m           1.000e+20                      37.9041k                  -39.9661m
     252.0000m           1.000e+20                      37.9081k                  -40.9742m
     253.0000m           1.000e+20                      37.9123k                  -42.0051m
     254.0000m           1.000e+20                      37.9165k                  -43.0593m
     255.0000m           1.000e+20                      37.9209k                  -44.1375m
     256.0000m           1.000e+20                      37.9254k                  -45.2399m
     257.0000m           1.000e+20                      37.9300k                  -46.3671m
     258.0000m           1.000e+20                      37.9347k                  -47.5196m
     259.0000m           1.000e+20                      37.9395k                  -48.6979m
     260.0000m           1.000e+20                      37.9445k                  -49.9026m
     261.0000m           1.000e+20                      37.9496k                  -51.1340m
     262.0000m           1.000e+20                      37.9548k                  -52.3928m
     263.0000m           1.000e+20                      37.9601k                  -53.6795m
     264.0000m           1.000e+20                      37.9656k                  -54.9946m
     265.0000m           1.000e+20                      37.9712k                  -56.3387m
     266.0000m           1.000e+20                      37.9769k                  -57.7123m
     267.0000m           1.000e+20                      37.9828k                  -59.1160m
     268.0000m           1.000e+20                      37.9889k                  -60.5503m
     269.0000m           1.000e+20                      37.9950k                  -62.0159m
     270.0000m           1.000e+20                      38.0014k                  -63.5133m
     271.0000m           1.000e+20                      38.0079k                  -65.0432m
     272.0000m           1.000e+20                      38.0145k                  -66.6060m
     273.0000m           1.000e+20                      38.0213k                  -68.2025m
     274.0000m           1.000e+20                      38.0283k                  -69.8333m
     275.0000m           1.000e+20                      38.0354k                  -71.4989m
     276.0000m           1.000e+20                      38.0428k                  -73.1999m
     277.0000m           1.000e+20                      38.0503k                  -74.9371m
     278.0000m           1.000e+20                      38.0580k                  -76.7111m
     279.0000m           1.000e+20                      38.0658k                  -78.5225m
     280.0000m           1.000e+20                      38.0739k                  -80.3719m
     281.0000m           1.000e+20                      38.0821k                  -82.2600m
     282.0000m           1.000e+20                      38.0906k                  -84.1875m
     283.0000m           1.000e+20                      38.0992k                  -86.1551m
     284.0000m           1.000e+20                      38.1081k                  -88.1634m
     285.0000m           1.000e+20                      38.1172k                  -90.2131m
     286.0000m           1.000e+20                      38.1265k                  -92.3049m
     287.0000m           1.000e+20                      38.1360k                  -94.4394m
     288.0000m           1.000e+20                      38.1457k                  -96.6174m
     289.0000m           1.000e+20                      38.1557k                  -98.8396m
     290.0000m           1.000e+20                      38.1659k                 -101.1066m
     291.0000m           1.000e+20                      38.1763k                 -103.4192m
     292.0000m           1.000e+20                      38.1870k                 -105.7781m
     293.0000m           1.000e+20                      38.1980k                 -108.1839m
     294.0000m           1.000e+20                      38.2092k                 -110.6375m
     295.0000m           1.000e+20                      38.2206k                 -113.1394m
     296.0000m           1.000e+20                      38.2324k                 -115.6905m
     297.0000m           1.000e+20                      38.2444k                 -118.2914m
     298.0000m           1.000e+20                      38.2566k                 -120.9428m
     299.0000m           1.000e+20                      38.2692k                 -123.6455m
     300.0000m           1.000e+20                      38.2821k                 -126.4002m
     301.0000m           1.000e+20                      38.2952k                 -129.2077m
     302.0000m           1.000e+20                      38.3087k                 -132.0685m
     303.0000m           1.000e+20                      38.3224k                 -134.9836m
     304.0000m           1.000e+20                      38.3365k                 -137.9535m
     305.0000m           1.000e+20                      38.3509k                 -140.9789m
     306.0000m           1.000e+20                      38.3657k                 -144.0607m
     307.0000m           1.000e+20                      38.3807k                 -147.1996m
     308.0000m           1.000e+20                      38.3961k                 -150.3961m
     309.0000m           1.000e+20                      38.4119k                 -153.6511m
     310.0000m           1.000e+20                      38.4280k                 -156.9653m
     311.0000m           1.000e+20                      38.4445k                 -160.3394m
     312.0000m           1.000e+20                      38.4614k                 -163.7740m
     313.0000m           1.000e+20                      38.4786k                 -167.2698m
     314.0000m           1.000e+20                      38.4962k                 -170.8276m
     315.0000m           1.000e+20                      38.5142k                 -174.4481m
     316.0000m           1.000e+20                      38.5326k                 -178.1319m
     317.0000m           1.000e+20                      38.5515k                 -181.8797m
     318.0000m           1.000e+20                      38.5707k                 -185.6922m
     319.0000m           1.000e+20                      38.5904k                 -189.5700m
     320.0000m           1.000e+20                      38.6105k                 -193.5139m
     321.0000m           1.000e+20                      38.6310k                 -197.5244m
     322.0000m           1.000e+20                      38.6520k                 -201.6023m
     323.0000m           1.000e+20                      38.6735k                 -205.7481m
     324.0000m           1.000e+20                      38.6954k                 -209.9626m
     325.0000m           1.000e+20                      38.7178k                 -214.2463m
     326.0000m           1.000e+20                      38.7407k                 -218.5998m
     327.0000m           1.000e+20                      38.7641k                 -223.0239m
     328.0000m           1.000e+20                      38.7880k                 -227.5190m
     329.0000m           1.000e+20                      38.8124k                 -232.0859m
     330.0000m           1.000e+20                      38.8373k                 -236.7250m
     331.0000m           1.000e+20                      38.8628k                 -241.4370m
     332.0000m           1.000e+20                      38.8888k                 -246.2225m
     333.0000m           1.000e+20                      38.9154k                 -251.0820m
     334.0000m           1.000e+20                      38.9425k                 -256.0161m
     335.0000m           1.000e+20                      38.9702k                 -261.0253m
     336.0000m           1.000e+20                      38.9985k                 -266.1103m
     337.0000m           1.000e+20                      39.0274k                 -271.2715m
     338.0000m           1.000e+20                      39.0569k                 -276.5094m
     339.0000m           1.000e+20                      39.0871k                 -281.8247m
     340.0000m           1.000e+20                      39.1178k                 -287.2177m
     341.0000m           1.000e+20                      39.1492k                 -292.6891m
     342.0000m           1.000e+20                      39.1813k                 -298.2393m
     343.0000m           1.000e+20                      39.2140k                 -303.8689m
     344.0000m           1.000e+20                      39.2474k                 -309.5782m
     345.0000m           1.000e+20                      39.2815k                 -315.3678m
     346.0000m           1.000e+20                      39.3164k                 -321.2382m
     347.0000m           1.000e+20                      39.3519k                 -327.1899m
     348.0000m           1.000e+20                      39.3881k                 -333.2232m
     349.0000m           1.000e+20                      39.4251k                 -339.3387m
     350.0000m           1.000e+20                      39.4629k                 -345.5368m
     351.0000m           1.000e+20                      39.5014k                 -351.8180m
     352.0000m           1.000e+20                      39.5407k                 -358.1826m
     353.0000m           1.000e+20                      39.5808k                 -364.6312m
     354.0000m           1.000e+20                      39.6217k                 -371.1642m
     355.0000m           1.000e+20                      39.6635k                 -377.7820m
     356.0000m           1.000e+20                      39.7061k                 -384.4850m
     357.0000m           1.000e+20                      39.7495k                 -391.2738m
     358.0000m           1.000e+20                      39.7938k                 -398.1486m
     359.0000m           1.000e+20                      39.8390k                 -405.1099m
     360.0000m           1.000e+20                      39.8852k                 -412.1582m
     361.0000m           1.000e+20                      39.9322k                 -419.2939m
     362.0000m           1.000e+20                      39.9801k                 -426.5174m
     363.0000m           1.000e+20                      40.0291k                 -433.8292m
     364.0000m           1.000e+20                      40.0790k                 -441.2297m
     365.0000m           1.000e+20                      40.1298k                 -448.7192m
     366.0000m           1.000e+20                      40.1817k                 -456.2984m
     367.0000m           1.000e+20                      40.2346k                 -463.9675m
     368.0000m           1.000e+20                      40.2886k                 -471.7272m
     369.0000m           1.000e+20                      40.3436k                 -479.5778m
     370.0000m           1.000e+20                      40.3996k                 -487.5198m
     371.0000m           1.000e+20                      40.4568k                 -495.5536m
     372.0000m           1.000e+20                      40.5151k                 -503.6799m
     373.0000m           1.000e+20                      40.5746k                 -511.8991m
     374.0000m           1.000e+20                      40.6352k                 -520.2116m
     375.0000m           1.000e+20                      40.6969k                 -528.6181m
     376.0000m           1.000e+20                      40.7599k                 -537.1190m
     377.0000m           1.000e+20                      40.8241k                 -545.7149m
     378.0000m           1.000e+20                      40.8896k                 -554.4065m
     379.0000m           1.000e+20                      40.9563k                 -563.1942m
     380.0000m           1.000e+20                      41.0243k                 -572.0788m
     381.0000m           1.000e+20                      41.0936k                 -581.0607m
     382.0000m           1.000e+20                      41.1643k                 -590.1408m
     383.0000m           1.000e+20                      41.2363k                 -599.3196m
     384.0000m           1.000e+20                      41.3097k                 -608.5978m
     385.0000m           1.000e+20                      41.3845k                 -617.9763m
     386.0000m           1.000e+20                      41.4608k                 -627.4557m
     387.0000m           1.000e+20                      41.5386k                 -637.0368m
     388.0000m           1.000e+20                      41.6178k                 -646.7205m
     389.0000m           1.000e+20                      41.6986k                 -656.5075m
     390.0000m           1.000e+20                      41.7809k                 -666.3988m
     391.0000m           1.000e+20                      41.8648k                 -676.3953m
     392.0000m           1.000e+20                      41.9504k                 -686.4980m
     393.0000m           1.000e+20                      42.0375k                 -696.7077m
     394.0000m           1.000e+20                      42.1264k                 -707.0256m
     395.0000m           1.000e+20                      42.2170k                 -717.4527m
     396.0000m           1.000e+20                      42.3093k                 -727.9902m
     397.0000m           1.000e+20                      42.4034k                 -738.6391m
     398.0000m           1.000e+20                      42.4993k                 -749.4008m
     399.0000m           1.000e+20                      42.5971k                 -760.2765m
     400.0000m           1.000e+20                      42.6968k                 -771.2675m
     401.0000m           1.000e+20                      42.7984k                 -782.3752m
     402.0000m           1.000e+20                      42.9020k                 -793.6010m
     403.0000m           1.000e+20                      43.0075k                 -804.9463m
     404.0000m           1.000e+20                      43.1152k                 -816.4129m
     405.0000m           1.000e+20                      43.2249k                 -828.0022m
     406.0000m           1.000e+20                      43.3368k                 -839.7159m
     407.0000m           1.000e+20                      43.4509k                 -851.5559m
     408.0000m           1.000e+20                      43.5672k                 -863.5239m
     409.0000m           1.000e+20                      43.6859k                 -875.6219m
     410.0000m           1.000e+20                      43.8068k                 -887.8518m
     411.0000m           1.000e+20                      43.9301k                 -900.2158m
     412.0000m           1.000e+20                      44.0559k                 -912.7159m
     413.0000m           1.000e+20                      44.1842k                 -925.3545m
     414.0000m           1.000e+20                      44.3150k                 -938.1338m
     415.0000m           1.000e+20                      44.4485k                 -951.0564m
     416.0000m           1.000e+20                      44.5846k                 -964.1247m
     417.0000m           1.000e+20                      44.7235k                 -977.3415m
     418.0000m           1.000e+20                      44.8652k                 -990.7094m
     419.0000m           1.000e+20                      45.0097k                   -1.0042 
     420.0000m           1.000e+20                      45.1572k                   -1.0179 
     421.0000m           1.000e+20                      45.3077k                   -1.0317 
     422.0000m           1.000e+20                      45.4613k                   -1.0458 
     423.0000m           1.000e+20                      45.6181k                   -1.0599 
     424.0000m           1.000e+20                      45.7781k                   -1.0743 
     425.0000m           1.000e+20                      45.9414k                   -1.0888 
     426.0000m           1.000e+20                      46.1081k                   -1.1035 
     427.0000m           1.000e+20                      46.2784k                   -1.1183 
     428.0000m           1.000e+20                      46.4523k                   -1.1334 
     429.0000m           1.000e+20                      46.6298k                   -1.1487 
     430.0000m           1.000e+20                      46.8112k                   -1.1641 
     431.0000m           1.000e+20                      46.9964k                   -1.1797 
     432.0000m           1.000e+20                      47.1856k                   -1.1956 
     433.0000m           1.000e+20                      47.3790k                   -1.2117 
     434.0000m           1.000e+20                      47.5766k                   -1.2279 
     435.0000m           1.000e+20                      47.7786k                   -1.2444 
     436.0000m           1.000e+20                      47.9850k                   -1.2612 
     437.0000m           1.000e+20                      48.1961k                   -1.2781 
     438.0000m           1.000e+20                      48.4119k                   -1.2953 
     439.0000m           1.000e+20                      48.6326k                   -1.3128 
     440.0000m           1.000e+20                      48.8584k                   -1.3305 
     441.0000m           1.000e+20                      49.0894k                   -1.3484 
     442.0000m           1.000e+20                      49.3257k                   -1.3667 
     443.0000m           1.000e+20                      49.5676k                   -1.3852 
     444.0000m           1.000e+20                      49.8152k                   -1.4040 
     445.0000m           1.000e+20                      50.0687k                   -1.4230 
     446.0000m           1.000e+20                      50.3283k                   -1.4424 
     447.0000m           1.000e+20                      50.5942k                   -1.4621 
     448.0000m           1.000e+20                      50.8666k                   -1.4822 
     449.0000m           1.000e+20                      51.1458k                   -1.5025 
     450.0000m           1.000e+20                      51.4320k                   -1.5232 
     451.0000m           1.000e+20                      51.7254k                   -1.5443 
     452.0000m           1.000e+20                      52.0263k                   -1.5658 
     453.0000m           1.000e+20                      52.3350k                   -1.5876 
     454.0000m           1.000e+20                      52.6517k                   -1.6098 
     455.0000m           1.000e+20                      52.9768k                   -1.6324 
     456.0000m           1.000e+20                      53.3106k                   -1.6555 
     457.0000m           1.000e+20                      53.6535k                   -1.6790 
     458.0000m           1.000e+20                      54.0057k                   -1.7030 
     459.0000m           1.000e+20                      54.3677k                   -1.7275 
     460.0000m           1.000e+20                      54.7399k                   -1.7524 
     461.0000m           1.000e+20                      55.1227k                   -1.7779 
     462.0000m           1.000e+20                      55.5166k                   -1.8039 
     463.0000m           1.000e+20                      55.9220k                   -1.8305 
     464.0000m           1.000e+20                      56.3394k                   -1.8577 
     465.0000m           1.000e+20                      56.7694k                   -1.8855 
     466.0000m           1.000e+20                      57.2126k                   -1.9139 
     467.0000m           1.000e+20                      57.6696k                   -1.9430 
     468.0000m           1.000e+20                      58.1409k                   -1.9729 
     469.0000m           1.000e+20                      58.6275k                   -2.0034 
     470.0000m           1.000e+20                      59.1298k                   -2.0348 
     471.0000m           1.000e+20                      59.6489k                   -2.0669 
     472.0000m           1.000e+20                      60.1855k                   -2.0999 
     473.0000m           1.000e+20                      60.7405k                   -2.1338 
     474.0000m           1.000e+20                      61.3150k                   -2.1687 
     475.0000m           1.000e+20                      61.9100k                   -2.2046 
     476.0000m           1.000e+20                      62.5267k                   -2.2415 
     477.0000m           1.000e+20                      63.1663k                   -2.2795 
     478.0000m           1.000e+20                      63.8300k                   -2.3187 
     479.0000m           1.000e+20                      64.5195k                   -2.3592 
     480.0000m           1.000e+20                      65.2363k                   -2.4009 
     481.0000m           1.000e+20                      65.9820k                   -2.4441 
     482.0000m           1.000e+20                      66.7586k                   -2.4888 
     483.0000m           1.000e+20                      67.5681k                   -2.5351 
     484.0000m           1.000e+20                      68.4127k                   -2.5831 
     485.0000m           1.000e+20                      69.2949k                   -2.6329 
     486.0000m           1.000e+20                      70.2174k                   -2.6846 
     487.0000m           1.000e+20                      71.1831k                   -2.7385 
     488.0000m           1.000e+20                      72.1953k                   -2.7946 
     489.0000m           1.000e+20                      73.2577k                   -2.8531 
     490.0000m           1.000e+20                      74.3743k                   -2.9142 
     491.0000m           1.000e+20                      75.5496k                   -2.9781 
     492.0000m           1.000e+20                      76.7886k                   -3.0451 
     493.0000m           1.000e+20                      78.0970k                   -3.1155 
     494.0000m           1.000e+20                      79.4812k                   -3.1895 
     495.0000m           1.000e+20                      80.9484k                   -3.2675 
     496.0000m           1.000e+20                      82.5067k                   -3.3498 
     497.0000m           1.000e+20                      84.1656k                   -3.4370 
     498.0000m           1.000e+20                      85.9357k                   -3.5295 
     499.0000m           1.000e+20                      87.8294k                   -3.6279 
     500.0000m           1.000e+20                      89.8610k                   -3.7329 
     501.0000m           1.000e+20                      92.0472k                   -3.8453 
     502.0000m           1.000e+20                      94.4077k                   -3.9660 
     503.0000m           1.000e+20                      96.9655k                   -4.0961 
     504.0000m           1.000e+20                      99.7483k                   -4.2369 
     505.0000m           1.000e+20                     102.7893k                   -4.3900 
     506.0000m           1.000e+20                     106.1286k                   -4.5573 
     507.0000m           1.000e+20                     109.8155k                   -4.7411 
     508.0000m           1.000e+20                     113.9109k                   -4.9443 
     509.0000m           1.000e+20                     118.4914k                   -5.1704 
     510.0000m           1.000e+20                     123.6541k                   -5.4242 
     511.0000m           1.000e+20                     129.5246k                   -5.7114 
     512.0000m           1.000e+20                     136.2681k                   -6.0400 
     513.0000m           1.000e+20                     144.1058k                   -6.4202 
     514.0000m           1.000e+20                     153.3415k                   -6.8665 
     515.0000m           1.000e+20                     164.4030k                   -7.3990 
     516.0000m           1.000e+20                     177.9117k                   -8.0470 
     517.0000m           1.000e+20                     194.8036k                   -8.8544 
     518.0000m           1.000e+20                     216.5492k                   -9.8907 
     519.0000m           1.000e+20                     245.5792k                  -11.2703 
     520.0000m           1.000e+20                     286.1597k                  -13.1941 
     521.0000m           1.000e+20                     346.3127k                  -16.0404 
     522.0000m           1.000e+20                     442.4272k                  -20.5817 
     523.0000m           1.000e+20                     608.8105k                  -28.4376 
     524.0000m           1.000e+20                     909.5959k                  -42.6397 
     525.0000m           1.000e+20                       1.3755x                  -64.6601 
     526.0000m           1.000e+20                       1.8188x                  -85.6449 
     527.0000m           1.000e+20                       2.0796x                  -98.0232 
     528.0000m           1.000e+20                       2.2178x                 -104.5968 
     529.0000m           1.000e+20                       2.2970x                 -108.3574 
     530.0000m           1.000e+20                       2.3420x                 -110.4870 
     531.0000m           1.000e+20                       2.3584x                 -111.2453 
     532.0000m           1.000e+20                       2.3378x                 -110.2287 
     533.0000m           1.000e+20                       2.2476x                 -105.8835 
  
 **info** dc convergence successful at Newton-Raphson method 
1****** PrimeSim HSPICE -- R-2020.12-SP2 linux64 (May 24 2021 7074677) ******
 ******  
 ** 110061217  hw3_a

 ****** operating point information tnom=  25.000 temp=  25.000 ******
 ****** operating point status is all       simulation time is     0.     
    node    =voltage      node    =voltage      node    =voltage

 +0:vb1     = 900.0000m 0:vdd     =   1.8000  0:vin     = 533.0000m
 +0:vout    = 499.4235m


 **** voltage sources

 subckt                                   
 element  0:vin      0:vb1      0:vdd     
  volts    533.0000m  900.0000m    1.8000 
  current    0.         0.        -5.1118u
  power      0.         0.         9.2012u

     total voltage source power dissipation=    9.2012u       watts




 **** mosfets


 subckt                        
 element  0:mp       0:mn      
 model    0:p_18.1   0:n_18.1  
 region   Saturation Saturation
  id        -5.1118u    5.1118u
  ibs      6.208e-22 -1.008e-21
  ibd      227.8188a -142.0151a
  vgs     -900.0000m  533.0000m
  vds       -1.3006   499.4235m
  vbs        0.         0.     
  vth     -476.2435m  340.8760m
  vdsat   -368.6683m  173.2277m
  vod     -423.7565m  192.1240m
  beta      64.6455u  302.0019u
  gam eff  557.0846m  507.4460m
  gm        21.8546u   47.1123u
  gds       52.5553n  392.3847n
  gmb        7.1252u    9.2323u
  cdtot      3.2640f    4.3769f
  cgtot     57.5294f   59.9554f
  cstot     65.6636f   63.1053f
  cbtot     23.4601f   21.7777f
  cgs       52.6225f   54.1463f
  cgd        1.0851f    1.0554f







 ****     small-signal transfer characteristics

      v(vout)/vin                              = -105.8835 
      input resistance at             vin      =  1.000e+20
      output resistance at v(vout)             =    2.2476x




          ***** job concluded
 ******  
 ** 110061217  hw3_a

 ****** job statistics summary tnom=  25.000 temp=  25.000 ******
  
 ******  Machine Information  ******
 CPU:
 model name	: Intel(R) Xeon(R) Gold 6326 CPU @ 2.90GHz
 cpu MHz	: 800.048
 CPU(s)		: 64
  
 OS:
 Linux version 3.10.0-1160.95.1.el7.x86_64 (mockbuild@kbuilder.bsys.centos.org) (gcc version 4.8.5 20150623 (Red Hat 4.8.5-44) (GCC) ) #1 SMP Mon Jul 24 13:59:37 UTC 2023

 System loadavg : 0.35 0.40 0.52 2/1769 14800


  ******  PrimeSim HSPICE Threads Information  ******

  Command Line Threads Count :     1
  Available CPU Count        :    64
  Actual Threads Count       :     1


  ******  Circuit Statistics  ******
  # nodes       =       9 # elements   =       5
  # resistors   =       0 # capacitors =       0 # inductors   =       0
  # mutual_inds =       0 # vccs       =       0 # vcvs        =       0
  # cccs        =       0 # ccvs       =       0 # volt_srcs   =       3
  # curr_srcs   =       0 # diodes     =       0 # bjts        =       0
  # jfets       =       0 # mosfets    =       2 # U elements  =       0
  # T elements  =       0 # W elements =       0 # B elements  =       0
  # S elements  =       0 # P elements =       0 # va device   =       0
  # vector_srcs =       0 # N elements =       0


  ******  Runtime Statistics (seconds)  ******

  analysis           time    # points   tot. iter  conv.iter
  op point           0.01           1          11
  dc sweep           0.01         534        1082
  readin             0.02
  errchk             0.00
  setup              0.00
  output             0.00


           peak memory used        470.98 megabytes
           total cpu time            0.04 seconds
           total elapsed time        0.51 seconds
           job started at     02:24:48 11/14/2023
           job ended   at     02:24:49 11/14/2023

>info:         ***** hspice job concluded
           job total runtime         0.51 seconds


 lic: Release hspice token(s) 
 lic: total license checkout elapse time:        0.46(s)
